@<TRIPOS>MOLECULE
RES
1602 300 1 0 1
SMALL
NO_CHARGES
@<TRIPOS>CRYSIN
   39.0000    19.0000    39.0000    90.0000    90.0000    90.0000 1 1
@<TRIPOS>ATOM
       1 OW           5.2817     5.8766     4.3252 OW            1 RES     
       2 HW1          4.8423     6.6611     4.7628 HW1           1 RES     
       3 HW2          6.2118     6.1241     4.0538 HW2           1 RES     
       4 OW          -8.9201    -4.0221     4.0346 OW            1 RES     
       5 HW1         -9.3478    -3.7266     4.8888 HW1           1 RES     
       6 HW2         -8.5899    -3.2224     3.5331 HW2           1 RES     
       7 OW           9.4567     5.8607     7.9432 OW            1 RES     
       8 HW1          9.8932     6.5359     8.5378 HW1           1 RES     
       9 HW2          8.7294     5.3940     8.4465 HW2           1 RES     
      10 OW          12.9279     2.8283    -2.3988 OW            1 RES     
      11 HW1         12.3199     2.0354    -2.3587 HW1           1 RES     
      12 HW2         12.3887     3.6663    -2.3144 HW2           1 RES     
      13 OW         -15.9240     0.1019   -11.2519 OW            1 RES     
      14 HW1        -16.7050     0.7265   -11.2556 HW1           1 RES     
      15 HW2        -16.2524    -0.8424   -11.2733 HW2           1 RES     
      16 OW         -13.2669    -2.2250    -9.7749 OW            1 RES     
      17 HW1        -13.4392    -3.2027    -9.8950 HW1           1 RES     
      18 HW2        -14.0495    -1.7043   -10.1160 HW2           1 RES     
      19 OW           1.7948     6.0760     7.5533 OW            1 RES     
      20 HW1          1.8214     6.8221     8.2186 HW1           1 RES     
      21 HW2          1.0681     5.4350     7.8003 HW2           1 RES     
      22 OW         -15.0229    -4.0028    -8.4773 OW            1 RES     
      23 HW1        -14.7936    -4.9757    -8.5050 HW1           1 RES     
      24 HW2        -16.0169    -3.8942    -8.4848 HW2           1 RES     
      25 OW          -2.5164     1.1943    -8.6547 OW            1 RES     
      26 HW1         -1.9957     0.5872    -8.0544 HW1           1 RES     
      27 HW2         -3.4932     1.0058    -8.5531 HW2           1 RES     
      28 OW           8.2339     6.5474    -6.8155 OW            1 RES     
      29 HW1          7.3380     6.7590    -7.2061 HW1           1 RES     
      30 HW2          8.8732     7.2864    -7.0283 HW2           1 RES     
      31 OW          10.7189    -3.9664   -13.2694 OW            1 RES     
      32 HW1         10.8849    -4.9489   -13.3548 HW1           1 RES     
      33 HW2          9.9897    -3.8083   -12.6035 HW2           1 RES     
      34 OW          16.1601     6.3343    14.3241 OW            1 RES     
      35 HW1         16.1199     5.4676    14.8213 HW1           1 RES     
      36 HW2         15.2318     6.6442    14.1189 HW2           1 RES     
      37 OW         -11.1125     4.9232    14.5325 OW            1 RES     
      38 HW1        -10.8263     4.8806    13.5753 HW1           1 RES     
      39 HW2        -11.8630     5.5772    14.6272 HW2           1 RES     
      40 OW         -14.7799     3.9560    12.5101 OW            1 RES     
      41 HW1        -15.4286     3.8217    13.2592 HW1           1 RES     
      42 HW2        -14.5789     4.9308    12.4140 HW2           1 RES     
      43 OW           8.8433     6.4493     2.4802 OW            1 RES     
      44 HW1          9.0950     6.1888     1.5481 HW1           1 RES     
      45 HW2          9.6158     6.2827     3.0930 HW2           1 RES     
      46 OW          -5.7267     6.7296    12.6811 OW            1 RES     
      47 HW1         -5.7291     7.2048    11.8013 HW1           1 RES     
      48 HW2         -6.5462     6.1613    12.7553 HW2           1 RES     
      49 OW           0.0665    -6.9349   -12.1129 OW            1 RES     
      50 HW1          0.8641    -7.5161   -11.9510 HW1           1 RES     
      51 HW2          0.3573    -6.0847   -12.5519 HW2           1 RES     
      52 OW           4.6110    -3.7383    12.8023 OW            1 RES     
      53 HW1          3.8330    -3.7542    13.4304 HW1           1 RES     
      54 HW2          4.2784    -3.7558    11.8594 HW2           1 RES     
      55 OW          15.2330     4.4677     9.9358 OW            1 RES     
      56 HW1         14.4028     5.0251     9.9354 HW1           1 RES     
      57 HW2         16.0264     5.0514     9.7627 HW2           1 RES     
      58 OW         -11.6571     6.4483     3.5034 OW            1 RES     
      59 HW1        -11.0668     6.6570     4.2832 HW1           1 RES     
      60 HW2        -11.6234     5.4672     3.3130 HW2           1 RES     
      61 OW          -1.0908     5.9932   -16.2013 OW            1 RES     
      62 HW1         -1.0803     6.3495   -15.2670 HW1           1 RES     
      63 HW2         -2.0185     5.7037   -16.4372 HW2           1 RES     
      64 OW           1.9107    -2.1336    12.1005 OW            1 RES     
      65 HW1          2.7964    -1.9744    12.5366 HW1           1 RES     
      66 HW2          1.7647    -3.1169    11.9916 HW2           1 RES     
      67 OW           1.8679    -3.6419   -16.6643 OW            1 RES     
      68 HW1          2.8318    -3.4555   -16.8546 HW1           1 RES     
      69 HW2          1.7508    -4.6132   -16.4571 HW2           1 RES     
      70 OW          -1.6584     4.2646    13.0564 OW            1 RES     
      71 HW1         -2.1702     3.4058    13.0320 HW1           1 RES     
      72 HW2         -0.8098     4.1617    12.5375 HW2           1 RES     
      73 OW           6.3724     0.2248    -9.1268 OW            1 RES     
      74 HW1          6.8792     0.9730    -8.6988 HW1           1 RES     
      75 HW2          5.6471     0.6006    -9.7036 HW2           1 RES     
      76 OW          -2.9384    -0.3159    13.0987 OW            1 RES     
      77 HW1         -2.5258    -1.2000    12.8791 HW1           1 RES     
      78 HW2         -3.9323    -0.3804    13.0090 HW2           1 RES     
      79 OW          14.7338    -2.6451   -15.4241 OW            1 RES     
      80 HW1         14.8265    -1.7105   -15.0808 HW1           1 RES     
      81 HW2         15.5724    -3.1551   -15.2330 HW2           1 RES     
      82 OW         -11.0523     0.2855    15.2629 OW            1 RES     
      83 HW1        -11.9161    -0.0739    15.6157 HW1           1 RES     
      84 HW2        -10.8047     1.1128    15.7671 HW2           1 RES     
      85 OW          -0.9999    -1.8442     6.1998 OW            1 RES     
      86 HW1         -1.4018    -2.3841     5.4602 HW1           1 RES     
      87 HW2         -0.1445    -1.4328     5.8854 HW2           1 RES     
      88 OW          -0.2786     2.9225    16.0222 OW            1 RES     
      89 HW1         -0.3267     2.0132    16.4356 HW1           1 RES     
      90 HW2          0.5761     3.3663    16.2916 HW2           1 RES     
      91 OW          15.3419    -2.3607    -9.8333 OW            1 RES     
      92 HW1         14.4068    -2.0092    -9.7880 HW1           1 RES     
      93 HW2         15.3194    -3.3541    -9.9461 HW2           1 RES     
      94 OW          -6.8748    -2.6225    -6.8077 OW            1 RES     
      95 HW1         -5.9640    -3.0330    -6.7631 HW1           1 RES     
      96 HW2         -6.7978    -1.6725    -7.1103 HW2           1 RES     
      97 OW         -13.3731     1.8409   -11.7523 OW            1 RES     
      98 HW1        -12.7924     2.6445   -11.8831 HW1           1 RES     
      99 HW2        -14.3030     2.1342   -11.5304 HW2           1 RES     
     100 OW          12.9072    -2.2794   -17.1776 OW            1 RES     
     101 HW1         13.8766    -2.2010   -17.4104 HW1           1 RES     
     102 HW2         12.7395    -3.1635   -16.7413 HW2           1 RES     
     103 OW         -10.0672    -4.4630    -0.7452 OW            1 RES     
     104 HW1        -10.3963    -4.5647    -1.6840 HW1           1 RES     
     105 HW2        -10.2575    -5.3003    -0.2327 HW2           1 RES     
     106 OW          14.8671     3.7703   -10.8916 OW            1 RES     
     107 HW1         14.9893     3.5175   -11.8514 HW1           1 RES     
     108 HW2         15.5425     4.4639   -10.6410 HW2           1 RES     
     109 OW           8.9634     0.3073     2.0999 OW            1 RES     
     110 HW1          8.5027    -0.4797     2.5103 HW1           1 RES     
     111 HW2          9.9331     0.2901     2.3436 HW2           1 RES     
     112 OW           2.9276    -5.5981   -11.2111 OW            1 RES     
     113 HW1          2.6984    -6.2786   -11.9071 HW1           1 RES     
     114 HW2          3.6939    -5.9295   -10.6605 HW2           1 RES     
     115 OW         -13.4754     6.4665    17.1870 OW            1 RES     
     116 HW1        -14.0726     6.8467    16.4807 HW1           1 RES     
     117 HW2        -12.5320     6.4561    16.8557 HW2           1 RES     
     118 OW           1.0496    -6.7063    -0.2812 OW            1 RES     
     119 HW1          0.6358    -7.5305     0.1053 HW1           1 RES     
     120 HW2          1.6725    -6.3009     0.3879 HW2           1 RES     
     121 OW         -16.2153    -0.3979    -1.2178 OW            1 RES     
     122 HW1        -15.4725    -1.0194    -0.9688 HW1           1 RES     
     123 HW2        -15.9642     0.5378    -0.9700 HW2           1 RES     
     124 OW          11.6086    -6.1662    14.9798 OW            1 RES     
     125 HW1         10.8995    -6.2421    15.6808 HW1           1 RES     
     126 HW2         11.8634    -5.2059    14.8661 HW2           1 RES     
     127 OW           4.6767    -0.4325     7.0288 OW            1 RES     
     128 HW1          4.5819    -0.3470     6.0370 HW1           1 RES     
     129 HW2          4.4509     0.4402     7.4617 HW2           1 RES     
     130 OW          -1.1445     2.1899    -5.9757 OW            1 RES     
     131 HW1         -0.7325     3.1011    -5.9750 HW1           1 RES     
     132 HW2         -2.0873     2.2501    -5.6478 HW2           1 RES     
     133 OW          14.2915     0.2001   -12.1493 OW            1 RES     
     134 HW1         13.4676     0.7583   -12.2478 HW1           1 RES     
     135 HW2         14.0331    -0.7374   -11.9163 HW2           1 RES     
     136 OW           8.2138     1.0653     7.3441 OW            1 RES     
     137 HW1          8.7078     0.2933     6.9441 HW1           1 RES     
     138 HW2          7.7467     1.5732     6.6204 HW2           1 RES     
     139 OW          10.4781    -3.0948     3.1689 OW            1 RES     
     140 HW1         10.2636    -3.5834     4.0146 HW1           1 RES     
     141 HW2         11.3104    -3.4755     2.7659 HW2           1 RES     
     142 OW          13.6627     4.8474     3.2633 OW            1 RES     
     143 HW1         13.8088     4.2500     4.0519 HW1           1 RES     
     144 HW2         12.8310     4.5683     2.7833 HW2           1 RES     
     145 OW           6.3146    -0.2385   -11.6617 OW            1 RES     
     146 HW1          6.1542     0.5174   -12.2964 HW1           1 RES     
     147 HW2          7.2656    -0.2186   -11.3532 HW2           1 RES     
     148 OW         -13.2699     1.6025     8.1684 OW            1 RES     
     149 HW1        -13.6536     2.1187     7.4028 HW1           1 RES     
     150 HW2        -14.0116     1.1891     8.6968 HW2           1 RES     
     151 OW         -14.3719    -2.8415    -3.5684 OW            1 RES     
     152 HW1        -13.7004    -3.2680    -2.9625 HW1           1 RES     
     153 HW2        -15.2793    -2.8966    -3.1518 HW2           1 RES     
     154 OW         -15.1045    -6.3395    -3.7569 OW            1 RES     
     155 HW1        -14.7261    -6.9709    -3.0801 HW1           1 RES     
     156 HW2        -14.4391    -5.6180    -3.9483 HW2           1 RES     
     157 OW          -3.9878     2.9339   -13.1649 OW            1 RES     
     158 HW1         -4.4446     3.6403   -12.6242 HW1           1 RES     
     159 HW2         -2.9969     3.0329   -13.0735 HW2           1 RES     
     160 OW           3.6573     0.2793     3.9349 OW            1 RES     
     161 HW1          4.2926    -0.2561     3.3783 HW1           1 RES     
     162 HW2          3.6182     1.2163     3.5878 HW2           1 RES     
     163 OW          12.1849     0.1015     5.9272 OW            1 RES     
     164 HW1         13.0935     0.5046     5.8180 HW1           1 RES     
     165 HW2         12.0993    -0.6946     5.3281 HW2           1 RES     
     166 OW         -16.3628     4.6779     3.0803 OW            1 RES     
     167 HW1        -17.1042     5.1410     3.5659 HW1           1 RES     
     168 HW2        -16.6568     4.4644     2.1487 HW2           1 RES     
     169 OW         -10.2521    -4.5687    16.0614 OW            1 RES     
     170 HW1        -11.0596    -4.1555    16.4823 HW1           1 RES     
     171 HW2        -10.2268    -4.3358    15.0893 HW2           1 RES     
     172 OW          -1.9903    -5.9304    10.8844 OW            1 RES     
     173 HW1         -2.2395    -5.2394    11.5630 HW1           1 RES     
     174 HW2         -2.8148    -6.2547    10.4207 HW2           1 RES     
     175 OW         -12.8175    -3.9564    11.8210 OW            1 RES     
     176 HW1        -13.4292    -4.7470    11.7966 HW1           1 RES     
     177 HW2        -11.8688    -4.2700    11.8600 HW2           1 RES     
     178 OW          12.1026    -2.1187   -12.8638 OW            1 RES     
     179 HW1         11.2990    -1.9935   -12.2819 HW1           1 RES     
     180 HW2         12.3086    -1.2619   -13.3365 HW2           1 RES     
     181 OW           2.8639     3.3342     5.4693 OW            1 RES     
     182 HW1          3.0356     4.2392     5.0801 HW1           1 RES     
     183 HW2          2.8741     3.3932     6.4675 HW2           1 RES     
     184 OW          11.8608    -5.4845    -5.3598 OW            1 RES     
     185 HW1         12.4974    -5.7618    -4.6402 HW1           1 RES     
     186 HW2         12.1165    -4.5797    -5.7005 HW2           1 RES     
     187 OW          -0.6423    -5.2675     7.9323 OW            1 RES     
     188 HW1          0.3572    -5.2385     7.9258 HW1           1 RES     
     189 HW2         -0.9501    -6.1971     7.7293 HW2           1 RES     
     190 OW          11.0411     2.6806     6.6654 OW            1 RES     
     191 HW1         10.0748     2.8651     6.8447 HW1           1 RES     
     192 HW2         11.1215     2.0195     5.9194 HW2           1 RES     
     193 OW          -6.8578     2.1806   -13.7090 OW            1 RES     
     194 HW1         -6.1733     2.7158   -14.2039 HW1           1 RES     
     195 HW2         -6.4466     1.3265   -13.3905 HW2           1 RES     
     196 OW         -18.0344     2.8323     9.2509 OW            1 RES     
     197 HW1        -17.1087     2.4542     9.2395 HW1           1 RES     
     198 HW2        -17.9863     3.8305     9.2872 HW2           1 RES     
     199 OW          10.6850     3.3846    -9.6554 OW            1 RES     
     200 HW1         10.5922     4.3794    -9.6985 HW1           1 RES     
     201 HW2         11.6433     3.1457    -9.4981 HW2           1 RES     
     202 OW           6.0960    -6.3174     9.9634 OW            1 RES     
     203 HW1          6.2204    -7.1028     9.3571 HW1           1 RES     
     204 HW2          6.0875    -5.4765     9.4222 HW2           1 RES     
     205 OW          -1.0895     6.7300     7.5999 OW            1 RES     
     206 HW1         -1.9621     7.1945     7.7507 HW1           1 RES     
     207 HW2         -0.3383     7.3502     7.8258 HW2           1 RES     
     208 OW          14.1195    -0.8461    -2.3849 OW            1 RES     
     209 HW1         13.7299    -0.7412    -3.2999 HW1           1 RES     
     210 HW2         13.3822    -0.8759    -1.7100 HW2           1 RES     
     211 OW          -4.8721     0.4453     9.9377 OW            1 RES     
     212 HW1         -5.8518     0.4950     9.7433 HW1           1 RES     
     213 HW2         -4.5795    -0.5109     9.9331 HW2           1 RES     
     214 OW          13.7711     1.1192    -9.0116 OW            1 RES     
     215 HW1         14.0537     1.7917    -8.3276 HW1           1 RES     
     216 HW2         13.1817     1.5598    -9.6887 HW2           1 RES     
     217 OW         -11.1683     0.2444    11.2349 OW            1 RES     
     218 HW1        -11.7171    -0.5891    11.1708 HW1           1 RES     
     219 HW2        -10.2804     0.0284    11.6410 HW2           1 RES     
     220 OW          -8.4901    -7.1297     4.8454 OW            1 RES     
     221 HW1         -9.2533    -6.4870     4.7791 HW1           1 RES     
     222 HW2         -7.8815    -6.8490     5.5877 HW2           1 RES     
     223 OW           8.7594     5.0031     5.9472 OW            1 RES     
     224 HW1          9.6989     5.0284     5.6058 HW1           1 RES     
     225 HW2          8.2013     4.4317     5.3455 HW2           1 RES     
     226 OW         -13.8866    -4.5126    -0.2727 OW            1 RES     
     227 HW1        -12.9788    -4.6471    -0.6700 HW1           1 RES     
     228 HW2        -14.5614    -4.4248    -1.0055 HW2           1 RES     
     229 OW         -11.7521    -5.5316     3.6282 OW            1 RES     
     230 HW1        -11.8758    -4.5607     3.4230 HW1           1 RES     
     231 HW2        -11.9931    -5.7037     4.5834 HW2           1 RES     
     232 OW          13.4110    -3.0108     4.8309 OW            1 RES     
     233 HW1         14.1688    -3.3121     4.2521 HW1           1 RES     
     234 HW2         13.0336    -3.7962     5.3215 HW2           1 RES     
     235 OW         -16.3501     5.1718    -3.5299 OW            1 RES     
     236 HW1        -16.2020     5.2717    -2.5460 HW1           1 RES     
     237 HW2        -16.2209     4.2151    -3.7909 HW2           1 RES     
     238 OW          -6.1924     0.8151     4.7752 OW            1 RES     
     239 HW1         -6.2279     1.0387     5.7492 HW1           1 RES     
     240 HW2         -5.8836    -0.1291     4.6610 HW2           1 RES     
     241 OW         -16.5240     6.4182    16.1512 OW            1 RES     
     242 HW1        -16.6932     6.2864    17.1279 HW1           1 RES     
     243 HW2        -16.3649     7.3884    15.9684 HW2           1 RES     
     244 OW         -10.6282     4.2899     4.9563 OW            1 RES     
     245 HW1        -11.5043     3.8193     4.8508 HW1           1 RES     
     246 HW2        -10.5839     4.7128     5.8614 HW2           1 RES     
     247 OW          -4.5007     0.9364    -4.7390 OW            1 RES     
     248 HW1         -4.4985     0.6572    -3.7788 HW1           1 RES     
     249 HW2         -5.0336     1.7764    -4.8406 HW2           1 RES     
     250 OW         -14.9738     0.8558   -14.1900 OW            1 RES     
     251 HW1        -15.2959     1.7973   -14.2897 HW1           1 RES     
     252 HW2        -15.0562     0.5749   -13.2338 HW2           1 RES     
     253 OW          13.1579     0.8609    17.0923 OW            1 RES     
     254 HW1         13.7149     0.1334    16.6917 HW1           1 RES     
     255 HW2         13.4246     1.7403    16.6982 HW2           1 RES     
     256 OW           8.5046    -0.7251    13.7336 OW            1 RES     
     257 HW1          8.1253    -0.3844    12.8734 HW1           1 RES     
     258 HW2          8.0148    -0.3113    14.5010 HW2           1 RES     
     259 OW         -11.6250    -7.5001    -3.2213 OW            1 RES     
     260 HW1        -11.9724    -6.5707    -3.0965 HW1           1 RES     
     261 HW2        -10.6512    -7.5251    -2.9952 HW2           1 RES     
     262 OW         -15.9765     6.9863     2.4957 OW            1 RES     
     263 HW1        -16.3479     7.4393     1.6853 HW1           1 RES     
     264 HW2        -15.0930     6.5748     2.2720 HW2           1 RES     
     265 OW           6.4163    -1.4790    -3.3162 OW            1 RES     
     266 HW1          5.7883    -0.7550    -3.6016 HW1           1 RES     
     267 HW2          6.2705    -1.6844    -2.3485 HW2           1 RES     
     268 OW          -8.8986    -2.6784    -3.2417 OW            1 RES     
     269 HW1         -8.5328    -1.7516    -3.1568 HW1           1 RES     
     270 HW2         -9.8804    -2.6336    -3.4263 HW2           1 RES     
     271 OW           3.0070    -0.3898    16.5342 OW            1 RES     
     272 HW1          3.2208    -1.3516    16.3629 HW1           1 RES     
     273 HW2          3.8194     0.1677    16.3632 HW2           1 RES     
     274 OW          13.5978     7.3823   -16.2976 OW            1 RES     
     275 HW1         12.8249     6.9227   -15.8602 HW1           1 RES     
     276 HW2         14.2949     6.7067   -16.5377 HW2           1 RES     
     277 OW           7.6198     1.9606    11.2402 OW            1 RES     
     278 HW1          7.5163     2.2028    12.2049 HW1           1 RES     
     279 HW2          8.5315     1.5788    11.0884 HW2           1 RES     
     280 OW         -14.2361     1.1897     1.4314 OW            1 RES     
     281 HW1        -14.6468     0.2915     1.2743 HW1           1 RES     
     282 HW2        -14.7638     1.6808     2.1245 HW2           1 RES     
     283 OW         -17.2015    -5.2121     4.8286 OW            1 RES     
     284 HW1        -17.5491    -5.0151     5.7453 HW1           1 RES     
     285 HW2        -17.2673    -6.1940     4.6511 HW2           1 RES     
     286 OW           1.3695    -1.1597     0.9735 OW            1 RES     
     287 HW1          0.7096    -0.4201     1.1062 HW1           1 RES     
     288 HW2          2.1676    -0.8103     0.4827 HW2           1 RES     
     289 OW           8.3894     3.3773   -16.2608 OW            1 RES     
     290 HW1          8.6948     2.4251   -16.2604 HW1           1 RES     
     291 HW2          7.4268     3.4187   -15.9929 HW2           1 RES     
     292 OW           4.0110    -4.5358     8.5752 OW            1 RES     
     293 HW1          4.0935    -3.5450     8.4672 HW1           1 RES     
     294 HW2          3.2855    -4.7402     9.2324 HW2           1 RES     
     295 OW          -2.7674     4.4848    -0.6489 OW            1 RES     
     296 HW1         -2.4898     3.5241    -0.6620 HW1           1 RES     
     297 HW2         -3.7653     4.5438    -0.6745 HW2           1 RES     
     298 OW          10.0711     3.4867     3.4447 OW            1 RES     
     299 HW1         10.9960     3.2991     3.1140 HW1           1 RES     
     300 HW2          9.6046     2.6234     3.6375 HW2           1 RES     
     301 OW          -1.5692    -1.4573   -10.7912 OW            1 RES     
     302 HW1         -2.1920    -1.0633   -10.1153 HW1           1 RES     
     303 HW2         -1.6209    -0.9301   -11.6393 HW2           1 RES     
     304 OW          14.7308    -4.3998   -13.3559 OW            1 RES     
     305 HW1         14.2566    -3.5194   -13.3595 HW1           1 RES     
     306 HW2         15.6817    -4.2650   -13.0774 HW2           1 RES     
     307 OW         -10.1939     0.8874     4.3555 OW            1 RES     
     308 HW1        -10.5667     1.7368     3.9820 HW1           1 RES     
     309 HW2        -10.8546     0.4831     4.9880 HW2           1 RES     
     310 OW           9.5903    -0.7329    -3.2447 OW            1 RES     
     311 HW1          8.9434     0.0296    -3.2316 HW1           1 RES     
     312 HW2          9.0871    -1.5970    -3.2334 HW2           1 RES     
     313 OW          -0.3348     2.1242     2.1461 OW            1 RES     
     314 HW1         -0.1283     2.9986     2.5852 HW1           1 RES     
     315 HW2          0.5098     1.6015     2.0306 HW2           1 RES     
     316 OW          11.7600    -6.7029     2.4708 OW            1 RES     
     317 HW1         12.7345    -6.5761     2.2859 HW1           1 RES     
     318 HW2         11.2600    -5.8792     2.2033 HW2           1 RES     
     319 OW           4.2558    -2.3019   -12.4779 OW            1 RES     
     320 HW1          3.5599    -2.7899   -11.9509 HW1           1 RES     
     321 HW2          4.9748    -2.9405   -12.7522 HW2           1 RES     
     322 OW          -7.5461    -5.4198   -14.7691 OW            1 RES     
     323 HW1         -7.5371    -6.3232   -15.1978 HW1           1 RES     
     324 HW2         -7.7877    -5.5117   -13.8031 HW2           1 RES     
     325 OW          10.7929     3.0208    10.2490 OW            1 RES     
     326 HW1         11.4802     3.4274     9.6471 HW1           1 RES     
     327 HW2         10.0695     3.6878    10.4272 HW2           1 RES     
     328 OW          -6.1323     5.1490     7.2958 OW            1 RES     
     329 HW1         -6.5334     4.2444     7.1515 HW1           1 RES     
     330 HW2         -5.1422     5.0609     7.4056 HW2           1 RES     
     331 OW           6.2894     6.2286   -14.9424 OW            1 RES     
     332 HW1          7.1821     5.7918   -15.0532 HW1           1 RES     
     333 HW2          6.4034     7.2221   -14.9326 HW2           1 RES     
     334 OW          -8.4730     3.7235    -9.9651 OW            1 RES     
     335 HW1         -8.0053     3.6975   -10.8485 HW1           1 RES     
     336 HW2         -8.1217     2.9924    -9.3802 HW2           1 RES     
     337 OW           0.9540    -3.0963   -10.8855 OW            1 RES     
     338 HW1          1.3078    -3.1189    -9.9505 HW1           1 RES     
     339 HW2         -0.0456    -3.0764   -10.8632 HW2           1 RES     
     340 OW           5.4859    -2.4585     1.4550 OW            1 RES     
     341 HW1          5.8954    -3.3644     1.5633 HW1           1 RES     
     342 HW2          5.7200    -1.8905     2.2440 HW2           1 RES     
     343 OW           7.3027    -5.0780     7.0505 OW            1 RES     
     344 HW1          6.3400    -4.8383     7.1758 HW1           1 RES     
     345 HW2          7.7783    -5.0172     7.9280 HW2           1 RES     
     346 OW           8.3696    -5.8203     0.4496 OW            1 RES     
     347 HW1          8.9308    -5.0032     0.5815 HW1           1 RES     
     348 HW2          8.9139    -6.5298     0.0019 HW2           1 RES     
     349 OW           6.0143     5.3210    -9.8222 OW            1 RES     
     350 HW1          6.7914     5.6814   -10.3383 HW1           1 RES     
     351 HW2          5.8929     5.8557    -8.9859 HW2           1 RES     
     352 OW          15.8208     6.7401   -12.4563 OW            1 RES     
     353 HW1         15.9622     7.3876   -11.7075 HW1           1 RES     
     354 HW2         14.8582     6.7485   -12.7270 HW2           1 RES     
     355 OW           8.2978    -4.5361   -13.7673 OW            1 RES     
     356 HW1          8.2347    -3.5480   -13.9080 HW1           1 RES     
     357 HW2          7.4434    -4.8715   -13.3705 HW2           1 RES     
     358 OW           8.1530    -6.6505    -9.4630 OW            1 RES     
     359 HW1          7.1635    -6.5105    -9.5010 HW1           1 RES     
     360 HW2          8.5994    -5.8008    -9.1827 HW2           1 RES     
     361 OW          13.8714    -1.3871    -6.9729 OW            1 RES     
     362 HW1         12.9472    -1.2564    -7.3319 HW1           1 RES     
     363 HW2         14.1528    -0.5691    -6.4711 HW2           1 RES     
     364 OW          12.9090    -0.2216     3.0752 OW            1 RES     
     365 HW1         13.5116    -1.0160     3.1505 HW1           1 RES     
     366 HW2         11.9577    -0.5274     3.0360 HW2           1 RES     
     367 OW           4.7761     4.7496    15.0435 OW            1 RES     
     368 HW1          4.5312     5.6804    15.3148 HW1           1 RES     
     369 HW2          5.5083     4.4117    15.6349 HW2           1 RES     
     370 OW           9.6262     4.4344    -3.2629 OW            1 RES     
     371 HW1          9.6768     5.4296    -3.3466 HW1           1 RES     
     372 HW2         10.5295     4.0395    -3.4307 HW2           1 RES     
     373 OW         -16.6230     4.3986   -14.2967 OW            1 RES     
     374 HW1        -17.6174     4.3078   -14.2417 HW1           1 RES     
     375 HW2        -16.3755     5.3674   -14.2816 HW2           1 RES     
     376 OW         -12.8905    -7.0257   -15.2048 OW            1 RES     
     377 HW1        -12.4452    -6.4763   -14.4977 HW1           1 RES     
     378 HW2        -13.7606    -6.6023   -15.4571 HW2           1 RES     
     379 OW          16.9318     0.2456   -12.6246 OW            1 RES     
     380 HW1         16.3805    -0.3851   -13.1709 HW1           1 RES     
     381 HW2         16.4821     1.1381   -12.5910 HW2           1 RES     
     382 OW          -8.6292    -5.8058   -10.1507 OW            1 RES     
     383 HW1         -8.7577    -6.7901   -10.2716 HW1           1 RES     
     384 HW2         -7.6680    -5.6174    -9.9492 HW2           1 RES     
     385 OW         -16.8722     1.5142    15.6471 OW            1 RES     
     386 HW1        -16.3197     2.3167    15.4216 HW1           1 RES     
     387 HW2        -17.4722     1.2957    14.8775 HW2           1 RES     
     388 OW          -2.2474    -5.1051   -10.6757 OW            1 RES     
     389 HW1         -1.6892    -5.5233   -11.3922 HW1           1 RES     
     390 HW2         -1.6514    -4.7162    -9.9731 HW2           1 RES     
     391 OW          15.4921     6.6766    -8.9810 OW            1 RES     
     392 HW1         16.0507     6.3485    -8.2192 HW1           1 RES     
     393 HW2         16.0060     7.3581    -9.5019 HW2           1 RES     
     394 OW           6.7970    -5.4108    -2.0314 OW            1 RES     
     395 HW1          7.7871    -5.5419    -2.0833 HW1           1 RES     
     396 HW2          6.3405    -6.2995    -2.0725 HW2           1 RES     
     397 OW         -10.8366     1.7350    -7.4903 OW            1 RES     
     398 HW1        -10.0501     1.1191    -7.5362 HW1           1 RES     
     399 HW2        -10.5374     2.6718    -7.6713 HW2           1 RES     
     400 OW           3.2598     2.0198    11.1025 OW            1 RES     
     401 HW1          3.9223     2.2245    11.8230 HW1           1 RES     
     402 HW2          2.7710     2.8555    10.8519 HW2           1 RES     
     403 OW          -3.0542     5.9143     9.3722 OW            1 RES     
     404 HW1         -2.7471     6.0951    10.3065 HW1           1 RES     
     405 HW2         -3.9901     5.5625     9.3913 HW2           1 RES     
     406 OW          -1.6158    -7.4736    -8.0244 OW            1 RES     
     407 HW1         -0.9680    -6.7390    -7.8228 HW1           1 RES     
     408 HW2         -2.3155    -7.5061    -7.3107 HW2           1 RES     
     409 OW          -2.7983     1.5585    15.0561 OW            1 RES     
     410 HW1         -3.5897     1.9966    14.6298 HW1           1 RES     
     411 HW2         -1.9697     2.0673    14.8226 HW2           1 RES     
     412 OW         -13.0503     4.4554    -9.3258 OW            1 RES     
     413 HW1        -13.6063     4.1965   -10.1156 HW1           1 RES     
     414 HW2        -12.1349     4.0639    -9.4200 HW2           1 RES     
     415 OW         -15.6054    -6.1015   -13.3160 OW            1 RES     
     416 HW1        -16.3490    -6.4492   -12.7449 HW1           1 RES     
     417 HW2        -15.6226    -5.1016   -13.3131 HW2           1 RES     
     418 OW          -6.3479    -6.6567    16.1668 OW            1 RES     
     419 HW1         -6.4889    -7.4921    16.6980 HW1           1 RES     
     420 HW2         -6.8664    -5.9078    16.5795 HW2           1 RES     
     421 OW          -7.3919    -1.7967     9.2789 OW            1 RES     
     422 HW1         -8.1471    -2.4503     9.3285 HW1           1 RES     
     423 HW2         -7.7577    -0.8667     9.2420 HW2           1 RES     
     424 OW          15.9317     1.5041     2.6167 OW            1 RES     
     425 HW1         15.0666     1.0097     2.5320 HW1           1 RES     
     426 HW2         15.7507     2.4863     2.6665 HW2           1 RES     
     427 OW         -16.8288     0.7135     3.3272 OW            1 RES     
     428 HW1        -17.7678     0.5197     3.6115 HW1           1 RES     
     429 HW2        -16.2926     0.9998     4.1212 HW2           1 RES     
     430 OW          -0.6180    -3.4282    -1.6634 OW            1 RES     
     431 HW1          0.0564    -3.7605    -2.3228 HW1           1 RES     
     432 HW2         -0.1612    -2.8652    -0.9746 HW2           1 RES     
     433 OW          16.0003    -7.2461     0.0387 OW            1 RES     
     434 HW1         15.3032    -6.6305    -0.3290 HW1           1 RES     
     435 HW2         16.2556    -6.9489     0.9588 HW2           1 RES     
     436 OW          -9.9995    -1.1231     7.7085 OW            1 RES     
     437 HW1        -10.6521    -1.8711     7.8296 HW1           1 RES     
     438 HW2        -10.4850    -0.2493     7.7373 HW2           1 RES     
     439 OW           3.6168     5.6687    -6.9984 OW            1 RES     
     440 HW1          3.0855     6.1439    -7.6998 HW1           1 RES     
     441 HW2          4.3958     6.2351    -6.7296 HW2           1 RES     
     442 OW           5.3322    -3.3313    -9.0315 OW            1 RES     
     443 HW1          4.5748    -3.3748    -8.3801 HW1           1 RES     
     444 HW2          5.4015    -2.4045    -9.4006 HW2           1 RES     
     445 OW          -2.5758    -3.7749    -8.1523 OW            1 RES     
     446 HW1         -2.3328    -2.8088    -8.0657 HW1           1 RES     
     447 HW2         -3.5678    -3.8622    -8.2439 HW2           1 RES     
     448 OW         -15.2231    -0.4197    13.7647 OW            1 RES     
     449 HW1        -14.2867    -0.6679    14.0127 HW1           1 RES     
     450 HW2        -15.2085     0.3852    13.1714 HW2           1 RES     
     451 C          -19.0340     8.3251   -18.4336 C             1 RES     
     452 C           19.0340     8.3251   -16.3067 C             1 RES     
     453 C           17.8060     8.3251   -14.1797 C             1 RES     
     454 C           16.5780     8.3250   -12.0528 C             1 RES     
     455 C           15.3500     8.3250    -9.9258 C             1 RES     
     456 C           14.1220     8.3250    -7.7988 C             1 RES     
     457 C           12.8940     8.3250    -5.6719 C             1 RES     
     458 C           11.6660     8.3250    -3.5449 C             1 RES     
     459 C           10.4380     8.3250    -1.4180 C             1 RES     
     460 C            9.2100     8.3250     0.7090 C             1 RES     
     461 C            7.9820     8.3250     2.8359 C             1 RES     
     462 C            6.7540     8.3250     4.9629 C             1 RES     
     463 C            5.5260     8.3250     7.0899 C             1 RES     
     464 C            4.2980     8.3250     9.2168 C             1 RES     
     465 C            3.0700     8.3250    11.3438 C             1 RES     
     466 C            1.8420     8.3250    13.4707 C             1 RES     
     467 C            0.6140     8.3249    15.5977 C             1 RES     
     468 C           -0.6140     8.3249    17.7247 C             1 RES     
     469 C          -16.5780     8.3251   -18.4336 C             1 RES     
     470 C          -17.8060     8.3251   -16.3067 C             1 RES     
     471 C          -19.0340     8.3251   -14.1797 C             1 RES     
     472 C           19.0340     8.3250   -12.0528 C             1 RES     
     473 C           17.8060     8.3250    -9.9258 C             1 RES     
     474 C           16.5780     8.3250    -7.7988 C             1 RES     
     475 C           15.3500     8.3250    -5.6719 C             1 RES     
     476 C           14.1220     8.3250    -3.5449 C             1 RES     
     477 C           12.8940     8.3250    -1.4180 C             1 RES     
     478 C           11.6660     8.3250     0.7090 C             1 RES     
     479 C           10.4380     8.3250     2.8359 C             1 RES     
     480 C            9.2100     8.3250     4.9629 C             1 RES     
     481 C            7.9820     8.3250     7.0899 C             1 RES     
     482 C            6.7540     8.3250     9.2168 C             1 RES     
     483 C            5.5260     8.3250    11.3438 C             1 RES     
     484 C            4.2980     8.3250    13.4707 C             1 RES     
     485 C            3.0700     8.3249    15.5977 C             1 RES     
     486 C            1.8420     8.3249    17.7247 C             1 RES     
     487 C          -14.1220     8.3251   -18.4336 C             1 RES     
     488 C          -15.3500     8.3251   -16.3067 C             1 RES     
     489 C          -16.5780     8.3251   -14.1797 C             1 RES     
     490 C          -17.8060     8.3250   -12.0528 C             1 RES     
     491 C          -19.0340     8.3250    -9.9258 C             1 RES     
     492 C           19.0340     8.3250    -7.7988 C             1 RES     
     493 C           17.8060     8.3250    -5.6719 C             1 RES     
     494 C           16.5780     8.3250    -3.5449 C             1 RES     
     495 C           15.3500     8.3250    -1.4180 C             1 RES     
     496 C           14.1220     8.3250     0.7090 C             1 RES     
     497 C           12.8940     8.3250     2.8359 C             1 RES     
     498 C           11.6660     8.3250     4.9629 C             1 RES     
     499 C           10.4380     8.3250     7.0899 C             1 RES     
     500 C            9.2100     8.3250     9.2168 C             1 RES     
     501 C            7.9820     8.3250    11.3438 C             1 RES     
     502 C            6.7540     8.3250    13.4707 C             1 RES     
     503 C            5.5260     8.3249    15.5977 C             1 RES     
     504 C            4.2980     8.3249    17.7247 C             1 RES     
     505 C          -11.6660     8.3251   -18.4336 C             1 RES     
     506 C          -12.8940     8.3251   -16.3067 C             1 RES     
     507 C          -14.1220     8.3251   -14.1797 C             1 RES     
     508 C          -15.3500     8.3250   -12.0528 C             1 RES     
     509 C          -16.5780     8.3250    -9.9258 C             1 RES     
     510 C          -17.8060     8.3250    -7.7988 C             1 RES     
     511 C          -19.0340     8.3250    -5.6719 C             1 RES     
     512 C           19.0340     8.3250    -3.5449 C             1 RES     
     513 C           17.8060     8.3250    -1.4180 C             1 RES     
     514 C           16.5780     8.3250     0.7090 C             1 RES     
     515 C           15.3500     8.3250     2.8359 C             1 RES     
     516 C           14.1220     8.3250     4.9629 C             1 RES     
     517 C           12.8940     8.3250     7.0899 C             1 RES     
     518 C           11.6660     8.3250     9.2168 C             1 RES     
     519 C           10.4380     8.3250    11.3438 C             1 RES     
     520 C            9.2100     8.3250    13.4707 C             1 RES     
     521 C            7.9820     8.3249    15.5977 C             1 RES     
     522 C            6.7540     8.3249    17.7247 C             1 RES     
     523 C           -9.2100     8.3251   -18.4336 C             1 RES     
     524 C          -10.4380     8.3251   -16.3067 C             1 RES     
     525 C          -11.6660     8.3251   -14.1797 C             1 RES     
     526 C          -12.8940     8.3250   -12.0528 C             1 RES     
     527 C          -14.1220     8.3250    -9.9258 C             1 RES     
     528 C          -15.3500     8.3250    -7.7988 C             1 RES     
     529 C          -16.5780     8.3250    -5.6719 C             1 RES     
     530 C          -17.8060     8.3250    -3.5449 C             1 RES     
     531 C          -19.0340     8.3250    -1.4180 C             1 RES     
     532 C           19.0340     8.3250     0.7090 C             1 RES     
     533 C           17.8060     8.3250     2.8359 C             1 RES     
     534 C           16.5780     8.3250     4.9629 C             1 RES     
     535 C           15.3500     8.3250     7.0899 C             1 RES     
     536 C           14.1220     8.3250     9.2168 C             1 RES     
     537 C           12.8940     8.3250    11.3438 C             1 RES     
     538 C           11.6660     8.3250    13.4707 C             1 RES     
     539 C           10.4380     8.3249    15.5977 C             1 RES     
     540 C            9.2100     8.3249    17.7247 C             1 RES     
     541 C           -6.7540     8.3251   -18.4336 C             1 RES     
     542 C           -7.9820     8.3251   -16.3067 C             1 RES     
     543 C           -9.2100     8.3251   -14.1797 C             1 RES     
     544 C          -10.4380     8.3250   -12.0528 C             1 RES     
     545 C          -11.6660     8.3250    -9.9258 C             1 RES     
     546 C          -12.8940     8.3250    -7.7988 C             1 RES     
     547 C          -14.1220     8.3250    -5.6719 C             1 RES     
     548 C          -15.3500     8.3250    -3.5449 C             1 RES     
     549 C          -16.5780     8.3250    -1.4180 C             1 RES     
     550 C          -17.8060     8.3250     0.7090 C             1 RES     
     551 C          -19.0340     8.3250     2.8359 C             1 RES     
     552 C           19.0340     8.3250     4.9629 C             1 RES     
     553 C           17.8060     8.3250     7.0899 C             1 RES     
     554 C           16.5780     8.3250     9.2168 C             1 RES     
     555 C           15.3500     8.3250    11.3438 C             1 RES     
     556 C           14.1220     8.3250    13.4707 C             1 RES     
     557 C           12.8940     8.3249    15.5977 C             1 RES     
     558 C           11.6660     8.3249    17.7247 C             1 RES     
     559 C           -4.2980     8.3251   -18.4336 C             1 RES     
     560 C           -5.5260     8.3251   -16.3067 C             1 RES     
     561 C           -6.7540     8.3251   -14.1797 C             1 RES     
     562 C           -7.9820     8.3250   -12.0528 C             1 RES     
     563 C           -9.2100     8.3250    -9.9258 C             1 RES     
     564 C          -10.4380     8.3250    -7.7988 C             1 RES     
     565 C          -11.6660     8.3250    -5.6719 C             1 RES     
     566 C          -12.8940     8.3250    -3.5449 C             1 RES     
     567 C          -14.1220     8.3250    -1.4180 C             1 RES     
     568 C          -15.3500     8.3250     0.7090 C             1 RES     
     569 C          -16.5780     8.3250     2.8359 C             1 RES     
     570 C          -17.8060     8.3250     4.9629 C             1 RES     
     571 C          -19.0340     8.3250     7.0899 C             1 RES     
     572 C           19.0340     8.3250     9.2168 C             1 RES     
     573 C           17.8060     8.3250    11.3438 C             1 RES     
     574 C           16.5780     8.3250    13.4707 C             1 RES     
     575 C           15.3500     8.3249    15.5977 C             1 RES     
     576 C           14.1220     8.3249    17.7247 C             1 RES     
     577 C           -1.8420     8.3251   -18.4336 C             1 RES     
     578 C           -3.0700     8.3251   -16.3067 C             1 RES     
     579 C           -4.2980     8.3251   -14.1797 C             1 RES     
     580 C           -5.5260     8.3250   -12.0528 C             1 RES     
     581 C           -6.7540     8.3250    -9.9258 C             1 RES     
     582 C           -7.9820     8.3250    -7.7988 C             1 RES     
     583 C           -9.2100     8.3250    -5.6719 C             1 RES     
     584 C          -10.4380     8.3250    -3.5449 C             1 RES     
     585 C          -11.6660     8.3250    -1.4180 C             1 RES     
     586 C          -12.8940     8.3250     0.7090 C             1 RES     
     587 C          -14.1220     8.3250     2.8359 C             1 RES     
     588 C          -15.3500     8.3250     4.9629 C             1 RES     
     589 C          -16.5780     8.3250     7.0899 C             1 RES     
     590 C          -17.8060     8.3250     9.2168 C             1 RES     
     591 C          -19.0340     8.3250    11.3438 C             1 RES     
     592 C           19.0340     8.3250    13.4707 C             1 RES     
     593 C           17.8060     8.3249    15.5977 C             1 RES     
     594 C           16.5780     8.3249    17.7247 C             1 RES     
     595 C            0.6140     8.3251   -18.4336 C             1 RES     
     596 C           -0.6140     8.3251   -16.3067 C             1 RES     
     597 C           -1.8420     8.3251   -14.1797 C             1 RES     
     598 C           -3.0700     8.3250   -12.0528 C             1 RES     
     599 C           -4.2980     8.3250    -9.9258 C             1 RES     
     600 C           -5.5260     8.3250    -7.7988 C             1 RES     
     601 C           -6.7540     8.3250    -5.6719 C             1 RES     
     602 C           -7.9820     8.3250    -3.5449 C             1 RES     
     603 C           -9.2100     8.3250    -1.4180 C             1 RES     
     604 C          -10.4380     8.3250     0.7090 C             1 RES     
     605 C          -11.6660     8.3250     2.8359 C             1 RES     
     606 C          -12.8940     8.3250     4.9629 C             1 RES     
     607 C          -14.1220     8.3250     7.0899 C             1 RES     
     608 C          -15.3500     8.3250     9.2168 C             1 RES     
     609 C          -16.5780     8.3250    11.3438 C             1 RES     
     610 C          -17.8060     8.3250    13.4707 C             1 RES     
     611 C          -19.0340     8.3249    15.5977 C             1 RES     
     612 C           19.0340     8.3249    17.7247 C             1 RES     
     613 C            3.0700     8.3251   -18.4336 C             1 RES     
     614 C            1.8420     8.3251   -16.3067 C             1 RES     
     615 C            0.6140     8.3251   -14.1797 C             1 RES     
     616 C           -0.6140     8.3250   -12.0528 C             1 RES     
     617 C           -1.8420     8.3250    -9.9258 C             1 RES     
     618 C           -3.0700     8.3250    -7.7988 C             1 RES     
     619 C           -4.2980     8.3250    -5.6719 C             1 RES     
     620 C           -5.5260     8.3250    -3.5449 C             1 RES     
     621 C           -6.7540     8.3250    -1.4180 C             1 RES     
     622 C           -7.9820     8.3250     0.7090 C             1 RES     
     623 C           -9.2100     8.3250     2.8359 C             1 RES     
     624 C          -10.4380     8.3250     4.9629 C             1 RES     
     625 C          -11.6660     8.3250     7.0899 C             1 RES     
     626 C          -12.8940     8.3250     9.2168 C             1 RES     
     627 C          -14.1220     8.3250    11.3438 C             1 RES     
     628 C          -15.3500     8.3250    13.4707 C             1 RES     
     629 C          -16.5780     8.3249    15.5977 C             1 RES     
     630 C          -17.8060     8.3249    17.7247 C             1 RES     
     631 C            5.5260     8.3251   -18.4336 C             1 RES     
     632 C            4.2980     8.3251   -16.3067 C             1 RES     
     633 C            3.0700     8.3251   -14.1797 C             1 RES     
     634 C            1.8420     8.3250   -12.0528 C             1 RES     
     635 C            0.6140     8.3250    -9.9258 C             1 RES     
     636 C           -0.6140     8.3250    -7.7988 C             1 RES     
     637 C           -1.8420     8.3250    -5.6719 C             1 RES     
     638 C           -3.0700     8.3250    -3.5449 C             1 RES     
     639 C           -4.2980     8.3250    -1.4180 C             1 RES     
     640 C           -5.5260     8.3250     0.7090 C             1 RES     
     641 C           -6.7540     8.3250     2.8359 C             1 RES     
     642 C           -7.9820     8.3250     4.9629 C             1 RES     
     643 C           -9.2100     8.3250     7.0899 C             1 RES     
     644 C          -10.4380     8.3250     9.2168 C             1 RES     
     645 C          -11.6660     8.3250    11.3438 C             1 RES     
     646 C          -12.8940     8.3250    13.4707 C             1 RES     
     647 C          -14.1220     8.3249    15.5977 C             1 RES     
     648 C          -15.3500     8.3249    17.7247 C             1 RES     
     649 C            7.9820     8.3251   -18.4336 C             1 RES     
     650 C            6.7540     8.3251   -16.3067 C             1 RES     
     651 C            5.5260     8.3251   -14.1797 C             1 RES     
     652 C            4.2980     8.3250   -12.0528 C             1 RES     
     653 C            3.0700     8.3250    -9.9258 C             1 RES     
     654 C            1.8420     8.3250    -7.7988 C             1 RES     
     655 C            0.6140     8.3250    -5.6719 C             1 RES     
     656 C           -0.6140     8.3250    -3.5449 C             1 RES     
     657 C           -1.8420     8.3250    -1.4180 C             1 RES     
     658 C           -3.0700     8.3250     0.7090 C             1 RES     
     659 C           -4.2980     8.3250     2.8359 C             1 RES     
     660 C           -5.5260     8.3250     4.9629 C             1 RES     
     661 C           -6.7540     8.3250     7.0899 C             1 RES     
     662 C           -7.9820     8.3250     9.2168 C             1 RES     
     663 C           -9.2100     8.3250    11.3438 C             1 RES     
     664 C          -10.4380     8.3250    13.4707 C             1 RES     
     665 C          -11.6660     8.3249    15.5977 C             1 RES     
     666 C          -12.8940     8.3249    17.7247 C             1 RES     
     667 C           10.4380     8.3251   -18.4336 C             1 RES     
     668 C            9.2100     8.3251   -16.3067 C             1 RES     
     669 C            7.9820     8.3251   -14.1797 C             1 RES     
     670 C            6.7540     8.3250   -12.0528 C             1 RES     
     671 C            5.5260     8.3250    -9.9258 C             1 RES     
     672 C            4.2980     8.3250    -7.7988 C             1 RES     
     673 C            3.0700     8.3250    -5.6719 C             1 RES     
     674 C            1.8420     8.3250    -3.5449 C             1 RES     
     675 C            0.6140     8.3250    -1.4180 C             1 RES     
     676 C           -0.6140     8.3250     0.7090 C             1 RES     
     677 C           -1.8420     8.3250     2.8359 C             1 RES     
     678 C           -3.0700     8.3250     4.9629 C             1 RES     
     679 C           -4.2980     8.3250     7.0899 C             1 RES     
     680 C           -5.5260     8.3250     9.2168 C             1 RES     
     681 C           -6.7540     8.3250    11.3438 C             1 RES     
     682 C           -7.9820     8.3250    13.4707 C             1 RES     
     683 C           -9.2100     8.3249    15.5977 C             1 RES     
     684 C          -10.4380     8.3249    17.7247 C             1 RES     
     685 C           12.8940     8.3251   -18.4336 C             1 RES     
     686 C           11.6660     8.3251   -16.3067 C             1 RES     
     687 C           10.4380     8.3251   -14.1797 C             1 RES     
     688 C            9.2100     8.3250   -12.0528 C             1 RES     
     689 C            7.9820     8.3250    -9.9258 C             1 RES     
     690 C            6.7540     8.3250    -7.7988 C             1 RES     
     691 C            5.5260     8.3250    -5.6719 C             1 RES     
     692 C            4.2980     8.3250    -3.5449 C             1 RES     
     693 C            3.0700     8.3250    -1.4180 C             1 RES     
     694 C            1.8420     8.3250     0.7090 C             1 RES     
     695 C            0.6140     8.3250     2.8359 C             1 RES     
     696 C           -0.6140     8.3250     4.9629 C             1 RES     
     697 C           -1.8420     8.3250     7.0899 C             1 RES     
     698 C           -3.0700     8.3250     9.2168 C             1 RES     
     699 C           -4.2980     8.3250    11.3438 C             1 RES     
     700 C           -5.5260     8.3250    13.4707 C             1 RES     
     701 C           -6.7540     8.3249    15.5977 C             1 RES     
     702 C           -7.9820     8.3249    17.7247 C             1 RES     
     703 C           15.3500     8.3251   -18.4336 C             1 RES     
     704 C           14.1220     8.3251   -16.3067 C             1 RES     
     705 C           12.8940     8.3251   -14.1797 C             1 RES     
     706 C           11.6660     8.3250   -12.0528 C             1 RES     
     707 C           10.4380     8.3250    -9.9258 C             1 RES     
     708 C            9.2100     8.3250    -7.7988 C             1 RES     
     709 C            7.9820     8.3250    -5.6719 C             1 RES     
     710 C            6.7540     8.3250    -3.5449 C             1 RES     
     711 C            5.5260     8.3250    -1.4180 C             1 RES     
     712 C            4.2980     8.3250     0.7090 C             1 RES     
     713 C            3.0700     8.3250     2.8359 C             1 RES     
     714 C            1.8420     8.3250     4.9629 C             1 RES     
     715 C            0.6140     8.3250     7.0899 C             1 RES     
     716 C           -0.6140     8.3250     9.2168 C             1 RES     
     717 C           -1.8420     8.3250    11.3438 C             1 RES     
     718 C           -3.0700     8.3250    13.4707 C             1 RES     
     719 C           -4.2980     8.3249    15.5977 C             1 RES     
     720 C           -5.5260     8.3249    17.7247 C             1 RES     
     721 C           17.8060     8.3251   -18.4336 C             1 RES     
     722 C           16.5780     8.3251   -16.3067 C             1 RES     
     723 C           15.3500     8.3251   -14.1797 C             1 RES     
     724 C           14.1220     8.3250   -12.0528 C             1 RES     
     725 C           12.8940     8.3250    -9.9258 C             1 RES     
     726 C           11.6660     8.3250    -7.7988 C             1 RES     
     727 C           10.4380     8.3250    -5.6719 C             1 RES     
     728 C            9.2100     8.3250    -3.5449 C             1 RES     
     729 C            7.9820     8.3250    -1.4180 C             1 RES     
     730 C            6.7540     8.3250     0.7090 C             1 RES     
     731 C            5.5260     8.3250     2.8359 C             1 RES     
     732 C            4.2980     8.3250     4.9629 C             1 RES     
     733 C            3.0700     8.3250     7.0899 C             1 RES     
     734 C            1.8420     8.3250     9.2168 C             1 RES     
     735 C            0.6140     8.3250    11.3438 C             1 RES     
     736 C           -0.6140     8.3250    13.4707 C             1 RES     
     737 C           -1.8420     8.3249    15.5977 C             1 RES     
     738 C           -3.0700     8.3249    17.7247 C             1 RES     
     739 C          -17.8060     8.3251   -17.7247 C             1 RES     
     740 C          -19.0340     8.3251   -15.5977 C             1 RES     
     741 C           19.0340     8.3250   -13.4707 C             1 RES     
     742 C           17.8060     8.3250   -11.3438 C             1 RES     
     743 C           16.5780     8.3250    -9.2168 C             1 RES     
     744 C           15.3500     8.3250    -7.0899 C             1 RES     
     745 C           14.1220     8.3250    -4.9629 C             1 RES     
     746 C           12.8940     8.3250    -2.8359 C             1 RES     
     747 C           11.6660     8.3250    -0.7090 C             1 RES     
     748 C           10.4380     8.3250     1.4180 C             1 RES     
     749 C            9.2100     8.3250     3.5449 C             1 RES     
     750 C            7.9820     8.3250     5.6719 C             1 RES     
     751 C            6.7540     8.3250     7.7988 C             1 RES     
     752 C            5.5260     8.3250     9.9258 C             1 RES     
     753 C            4.2980     8.3250    12.0528 C             1 RES     
     754 C            3.0700     8.3249    14.1797 C             1 RES     
     755 C            1.8420     8.3249    16.3067 C             1 RES     
     756 C            0.6140     8.3249    18.4336 C             1 RES     
     757 C          -15.3500     8.3251   -17.7247 C             1 RES     
     758 C          -16.5780     8.3251   -15.5977 C             1 RES     
     759 C          -17.8060     8.3250   -13.4707 C             1 RES     
     760 C          -19.0340     8.3250   -11.3438 C             1 RES     
     761 C           19.0340     8.3250    -9.2168 C             1 RES     
     762 C           17.8060     8.3250    -7.0899 C             1 RES     
     763 C           16.5780     8.3250    -4.9629 C             1 RES     
     764 C           15.3500     8.3250    -2.8359 C             1 RES     
     765 C           14.1220     8.3250    -0.7090 C             1 RES     
     766 C           12.8940     8.3250     1.4180 C             1 RES     
     767 C           11.6660     8.3250     3.5449 C             1 RES     
     768 C           10.4380     8.3250     5.6719 C             1 RES     
     769 C            9.2100     8.3250     7.7988 C             1 RES     
     770 C            7.9820     8.3250     9.9258 C             1 RES     
     771 C            6.7540     8.3250    12.0528 C             1 RES     
     772 C            5.5260     8.3249    14.1797 C             1 RES     
     773 C            4.2980     8.3249    16.3067 C             1 RES     
     774 C            3.0700     8.3249    18.4336 C             1 RES     
     775 C          -12.8940     8.3251   -17.7247 C             1 RES     
     776 C          -14.1220     8.3251   -15.5977 C             1 RES     
     777 C          -15.3500     8.3250   -13.4707 C             1 RES     
     778 C          -16.5780     8.3250   -11.3438 C             1 RES     
     779 C          -17.8060     8.3250    -9.2168 C             1 RES     
     780 C          -19.0340     8.3250    -7.0899 C             1 RES     
     781 C           19.0340     8.3250    -4.9629 C             1 RES     
     782 C           17.8060     8.3250    -2.8359 C             1 RES     
     783 C           16.5780     8.3250    -0.7090 C             1 RES     
     784 C           15.3500     8.3250     1.4180 C             1 RES     
     785 C           14.1220     8.3250     3.5449 C             1 RES     
     786 C           12.8940     8.3250     5.6719 C             1 RES     
     787 C           11.6660     8.3250     7.7988 C             1 RES     
     788 C           10.4380     8.3250     9.9258 C             1 RES     
     789 C            9.2100     8.3250    12.0528 C             1 RES     
     790 C            7.9820     8.3249    14.1797 C             1 RES     
     791 C            6.7540     8.3249    16.3067 C             1 RES     
     792 C            5.5260     8.3249    18.4336 C             1 RES     
     793 C          -10.4380     8.3251   -17.7247 C             1 RES     
     794 C          -11.6660     8.3251   -15.5977 C             1 RES     
     795 C          -12.8940     8.3250   -13.4707 C             1 RES     
     796 C          -14.1220     8.3250   -11.3438 C             1 RES     
     797 C          -15.3500     8.3250    -9.2168 C             1 RES     
     798 C          -16.5780     8.3250    -7.0899 C             1 RES     
     799 C          -17.8060     8.3250    -4.9629 C             1 RES     
     800 C          -19.0340     8.3250    -2.8359 C             1 RES     
     801 C           19.0340     8.3250    -0.7090 C             1 RES     
     802 C           17.8060     8.3250     1.4180 C             1 RES     
     803 C           16.5780     8.3250     3.5449 C             1 RES     
     804 C           15.3500     8.3250     5.6719 C             1 RES     
     805 C           14.1220     8.3250     7.7988 C             1 RES     
     806 C           12.8940     8.3250     9.9258 C             1 RES     
     807 C           11.6660     8.3250    12.0528 C             1 RES     
     808 C           10.4380     8.3249    14.1797 C             1 RES     
     809 C            9.2100     8.3249    16.3067 C             1 RES     
     810 C            7.9820     8.3249    18.4336 C             1 RES     
     811 C           -7.9820     8.3251   -17.7247 C             1 RES     
     812 C           -9.2100     8.3251   -15.5977 C             1 RES     
     813 C          -10.4380     8.3250   -13.4707 C             1 RES     
     814 C          -11.6660     8.3250   -11.3438 C             1 RES     
     815 C          -12.8940     8.3250    -9.2168 C             1 RES     
     816 C          -14.1220     8.3250    -7.0899 C             1 RES     
     817 C          -15.3500     8.3250    -4.9629 C             1 RES     
     818 C          -16.5780     8.3250    -2.8359 C             1 RES     
     819 C          -17.8060     8.3250    -0.7090 C             1 RES     
     820 C          -19.0340     8.3250     1.4180 C             1 RES     
     821 C           19.0340     8.3250     3.5449 C             1 RES     
     822 C           17.8060     8.3250     5.6719 C             1 RES     
     823 C           16.5780     8.3250     7.7988 C             1 RES     
     824 C           15.3500     8.3250     9.9258 C             1 RES     
     825 C           14.1220     8.3250    12.0528 C             1 RES     
     826 C           12.8940     8.3249    14.1797 C             1 RES     
     827 C           11.6660     8.3249    16.3067 C             1 RES     
     828 C           10.4380     8.3249    18.4336 C             1 RES     
     829 C           -5.5260     8.3251   -17.7247 C             1 RES     
     830 C           -6.7540     8.3251   -15.5977 C             1 RES     
     831 C           -7.9820     8.3250   -13.4707 C             1 RES     
     832 C           -9.2100     8.3250   -11.3438 C             1 RES     
     833 C          -10.4380     8.3250    -9.2168 C             1 RES     
     834 C          -11.6660     8.3250    -7.0899 C             1 RES     
     835 C          -12.8940     8.3250    -4.9629 C             1 RES     
     836 C          -14.1220     8.3250    -2.8359 C             1 RES     
     837 C          -15.3500     8.3250    -0.7090 C             1 RES     
     838 C          -16.5780     8.3250     1.4180 C             1 RES     
     839 C          -17.8060     8.3250     3.5449 C             1 RES     
     840 C          -19.0340     8.3250     5.6719 C             1 RES     
     841 C           19.0340     8.3250     7.7988 C             1 RES     
     842 C           17.8060     8.3250     9.9258 C             1 RES     
     843 C           16.5780     8.3250    12.0528 C             1 RES     
     844 C           15.3500     8.3249    14.1797 C             1 RES     
     845 C           14.1220     8.3249    16.3067 C             1 RES     
     846 C           12.8940     8.3249    18.4336 C             1 RES     
     847 C           -3.0700     8.3251   -17.7247 C             1 RES     
     848 C           -4.2980     8.3251   -15.5977 C             1 RES     
     849 C           -5.5260     8.3250   -13.4707 C             1 RES     
     850 C           -6.7540     8.3250   -11.3438 C             1 RES     
     851 C           -7.9820     8.3250    -9.2168 C             1 RES     
     852 C           -9.2100     8.3250    -7.0899 C             1 RES     
     853 C          -10.4380     8.3250    -4.9629 C             1 RES     
     854 C          -11.6660     8.3250    -2.8359 C             1 RES     
     855 C          -12.8940     8.3250    -0.7090 C             1 RES     
     856 C          -14.1220     8.3250     1.4180 C             1 RES     
     857 C          -15.3500     8.3250     3.5449 C             1 RES     
     858 C          -16.5780     8.3250     5.6719 C             1 RES     
     859 C          -17.8060     8.3250     7.7988 C             1 RES     
     860 C          -19.0340     8.3250     9.9258 C             1 RES     
     861 C           19.0340     8.3250    12.0528 C             1 RES     
     862 C           17.8060     8.3249    14.1797 C             1 RES     
     863 C           16.5780     8.3249    16.3067 C             1 RES     
     864 C           15.3500     8.3249    18.4336 C             1 RES     
     865 C           -0.6140     8.3251   -17.7247 C             1 RES     
     866 C           -1.8420     8.3251   -15.5977 C             1 RES     
     867 C           -3.0700     8.3250   -13.4707 C             1 RES     
     868 C           -4.2980     8.3250   -11.3438 C             1 RES     
     869 C           -5.5260     8.3250    -9.2168 C             1 RES     
     870 C           -6.7540     8.3250    -7.0899 C             1 RES     
     871 C           -7.9820     8.3250    -4.9629 C             1 RES     
     872 C           -9.2100     8.3250    -2.8359 C             1 RES     
     873 C          -10.4380     8.3250    -0.7090 C             1 RES     
     874 C          -11.6660     8.3250     1.4180 C             1 RES     
     875 C          -12.8940     8.3250     3.5449 C             1 RES     
     876 C          -14.1220     8.3250     5.6719 C             1 RES     
     877 C          -15.3500     8.3250     7.7988 C             1 RES     
     878 C          -16.5780     8.3250     9.9258 C             1 RES     
     879 C          -17.8060     8.3250    12.0528 C             1 RES     
     880 C          -19.0340     8.3249    14.1797 C             1 RES     
     881 C           19.0340     8.3249    16.3067 C             1 RES     
     882 C           17.8060     8.3249    18.4336 C             1 RES     
     883 C            1.8420     8.3251   -17.7247 C             1 RES     
     884 C            0.6140     8.3251   -15.5977 C             1 RES     
     885 C           -0.6140     8.3250   -13.4707 C             1 RES     
     886 C           -1.8420     8.3250   -11.3438 C             1 RES     
     887 C           -3.0700     8.3250    -9.2168 C             1 RES     
     888 C           -4.2980     8.3250    -7.0899 C             1 RES     
     889 C           -5.5260     8.3250    -4.9629 C             1 RES     
     890 C           -6.7540     8.3250    -2.8359 C             1 RES     
     891 C           -7.9820     8.3250    -0.7090 C             1 RES     
     892 C           -9.2100     8.3250     1.4180 C             1 RES     
     893 C          -10.4380     8.3250     3.5449 C             1 RES     
     894 C          -11.6660     8.3250     5.6719 C             1 RES     
     895 C          -12.8940     8.3250     7.7988 C             1 RES     
     896 C          -14.1220     8.3250     9.9258 C             1 RES     
     897 C          -15.3500     8.3250    12.0528 C             1 RES     
     898 C          -16.5780     8.3249    14.1797 C             1 RES     
     899 C          -17.8060     8.3249    16.3067 C             1 RES     
     900 C          -19.0340     8.3249    18.4336 C             1 RES     
     901 C            4.2980     8.3251   -17.7247 C             1 RES     
     902 C            3.0700     8.3251   -15.5977 C             1 RES     
     903 C            1.8420     8.3250   -13.4707 C             1 RES     
     904 C            0.6140     8.3250   -11.3438 C             1 RES     
     905 C           -0.6140     8.3250    -9.2168 C             1 RES     
     906 C           -1.8420     8.3250    -7.0899 C             1 RES     
     907 C           -3.0700     8.3250    -4.9629 C             1 RES     
     908 C           -4.2980     8.3250    -2.8359 C             1 RES     
     909 C           -5.5260     8.3250    -0.7090 C             1 RES     
     910 C           -6.7540     8.3250     1.4180 C             1 RES     
     911 C           -7.9820     8.3250     3.5449 C             1 RES     
     912 C           -9.2100     8.3250     5.6719 C             1 RES     
     913 C          -10.4380     8.3250     7.7988 C             1 RES     
     914 C          -11.6660     8.3250     9.9258 C             1 RES     
     915 C          -12.8940     8.3250    12.0528 C             1 RES     
     916 C          -14.1220     8.3249    14.1797 C             1 RES     
     917 C          -15.3500     8.3249    16.3067 C             1 RES     
     918 C          -16.5780     8.3249    18.4336 C             1 RES     
     919 C            6.7540     8.3251   -17.7247 C             1 RES     
     920 C            5.5260     8.3251   -15.5977 C             1 RES     
     921 C            4.2980     8.3250   -13.4707 C             1 RES     
     922 C            3.0700     8.3250   -11.3438 C             1 RES     
     923 C            1.8420     8.3250    -9.2168 C             1 RES     
     924 C            0.6140     8.3250    -7.0899 C             1 RES     
     925 C           -0.6140     8.3250    -4.9629 C             1 RES     
     926 C           -1.8420     8.3250    -2.8359 C             1 RES     
     927 C           -3.0700     8.3250    -0.7090 C             1 RES     
     928 C           -4.2980     8.3250     1.4180 C             1 RES     
     929 C           -5.5260     8.3250     3.5449 C             1 RES     
     930 C           -6.7540     8.3250     5.6719 C             1 RES     
     931 C           -7.9820     8.3250     7.7988 C             1 RES     
     932 C           -9.2100     8.3250     9.9258 C             1 RES     
     933 C          -10.4380     8.3250    12.0528 C             1 RES     
     934 C          -11.6660     8.3249    14.1797 C             1 RES     
     935 C          -12.8940     8.3249    16.3067 C             1 RES     
     936 C          -14.1220     8.3249    18.4336 C             1 RES     
     937 C            9.2100     8.3251   -17.7247 C             1 RES     
     938 C            7.9820     8.3251   -15.5977 C             1 RES     
     939 C            6.7540     8.3250   -13.4707 C             1 RES     
     940 C            5.5260     8.3250   -11.3438 C             1 RES     
     941 C            4.2980     8.3250    -9.2168 C             1 RES     
     942 C            3.0700     8.3250    -7.0899 C             1 RES     
     943 C            1.8420     8.3250    -4.9629 C             1 RES     
     944 C            0.6140     8.3250    -2.8359 C             1 RES     
     945 C           -0.6140     8.3250    -0.7090 C             1 RES     
     946 C           -1.8420     8.3250     1.4180 C             1 RES     
     947 C           -3.0700     8.3250     3.5449 C             1 RES     
     948 C           -4.2980     8.3250     5.6719 C             1 RES     
     949 C           -5.5260     8.3250     7.7988 C             1 RES     
     950 C           -6.7540     8.3250     9.9258 C             1 RES     
     951 C           -7.9820     8.3250    12.0528 C             1 RES     
     952 C           -9.2100     8.3249    14.1797 C             1 RES     
     953 C          -10.4380     8.3249    16.3067 C             1 RES     
     954 C          -11.6660     8.3249    18.4336 C             1 RES     
     955 C           11.6660     8.3251   -17.7247 C             1 RES     
     956 C           10.4380     8.3251   -15.5977 C             1 RES     
     957 C            9.2100     8.3250   -13.4707 C             1 RES     
     958 C            7.9820     8.3250   -11.3438 C             1 RES     
     959 C            6.7540     8.3250    -9.2168 C             1 RES     
     960 C            5.5260     8.3250    -7.0899 C             1 RES     
     961 C            4.2980     8.3250    -4.9629 C             1 RES     
     962 C            3.0700     8.3250    -2.8359 C             1 RES     
     963 C            1.8420     8.3250    -0.7090 C             1 RES     
     964 C            0.6140     8.3250     1.4180 C             1 RES     
     965 C           -0.6140     8.3250     3.5449 C             1 RES     
     966 C           -1.8420     8.3250     5.6719 C             1 RES     
     967 C           -3.0700     8.3250     7.7988 C             1 RES     
     968 C           -4.2980     8.3250     9.9258 C             1 RES     
     969 C           -5.5260     8.3250    12.0528 C             1 RES     
     970 C           -6.7540     8.3249    14.1797 C             1 RES     
     971 C           -7.9820     8.3249    16.3067 C             1 RES     
     972 C           -9.2100     8.3249    18.4336 C             1 RES     
     973 C           14.1220     8.3251   -17.7247 C             1 RES     
     974 C           12.8940     8.3251   -15.5977 C             1 RES     
     975 C           11.6660     8.3250   -13.4707 C             1 RES     
     976 C           10.4380     8.3250   -11.3438 C             1 RES     
     977 C            9.2100     8.3250    -9.2168 C             1 RES     
     978 C            7.9820     8.3250    -7.0899 C             1 RES     
     979 C            6.7540     8.3250    -4.9629 C             1 RES     
     980 C            5.5260     8.3250    -2.8359 C             1 RES     
     981 C            4.2980     8.3250    -0.7090 C             1 RES     
     982 C            3.0700     8.3250     1.4180 C             1 RES     
     983 C            1.8420     8.3250     3.5449 C             1 RES     
     984 C            0.6140     8.3250     5.6719 C             1 RES     
     985 C           -0.6140     8.3250     7.7988 C             1 RES     
     986 C           -1.8420     8.3250     9.9258 C             1 RES     
     987 C           -3.0700     8.3250    12.0528 C             1 RES     
     988 C           -4.2980     8.3249    14.1797 C             1 RES     
     989 C           -5.5260     8.3249    16.3067 C             1 RES     
     990 C           -6.7540     8.3249    18.4336 C             1 RES     
     991 C           16.5780     8.3251   -17.7247 C             1 RES     
     992 C           15.3500     8.3251   -15.5977 C             1 RES     
     993 C           14.1220     8.3250   -13.4707 C             1 RES     
     994 C           12.8940     8.3250   -11.3438 C             1 RES     
     995 C           11.6660     8.3250    -9.2168 C             1 RES     
     996 C           10.4380     8.3250    -7.0899 C             1 RES     
     997 C            9.2100     8.3250    -4.9629 C             1 RES     
     998 C            7.9820     8.3250    -2.8359 C             1 RES     
     999 C            6.7540     8.3250    -0.7090 C             1 RES     
    1000 C            5.5260     8.3250     1.4180 C             1 RES     
    1001 C            4.2980     8.3250     3.5449 C             1 RES     
    1002 C            3.0700     8.3250     5.6719 C             1 RES     
    1003 C            1.8420     8.3250     7.7988 C             1 RES     
    1004 C            0.6140     8.3250     9.9258 C             1 RES     
    1005 C           -0.6140     8.3250    12.0528 C             1 RES     
    1006 C           -1.8420     8.3249    14.1797 C             1 RES     
    1007 C           -3.0700     8.3249    16.3067 C             1 RES     
    1008 C           -4.2980     8.3249    18.4336 C             1 RES     
    1009 C           19.0340     8.3251   -17.7247 C             1 RES     
    1010 C           17.8060     8.3251   -15.5977 C             1 RES     
    1011 C           16.5780     8.3250   -13.4707 C             1 RES     
    1012 C           15.3500     8.3250   -11.3438 C             1 RES     
    1013 C           14.1220     8.3250    -9.2168 C             1 RES     
    1014 C           12.8940     8.3250    -7.0899 C             1 RES     
    1015 C           11.6660     8.3250    -4.9629 C             1 RES     
    1016 C           10.4380     8.3250    -2.8359 C             1 RES     
    1017 C            9.2100     8.3250    -0.7090 C             1 RES     
    1018 C            7.9820     8.3250     1.4180 C             1 RES     
    1019 C            6.7540     8.3250     3.5449 C             1 RES     
    1020 C            5.5260     8.3250     5.6719 C             1 RES     
    1021 C            4.2980     8.3250     7.7988 C             1 RES     
    1022 C            3.0700     8.3250     9.9258 C             1 RES     
    1023 C            1.8420     8.3250    12.0528 C             1 RES     
    1024 C            0.6140     8.3249    14.1797 C             1 RES     
    1025 C           -0.6140     8.3249    16.3067 C             1 RES     
    1026 C           -1.8420     8.3249    18.4336 C             1 RES     
    1027 C          -19.0340    -8.3249   -18.4336 C             1 RES     
    1028 C           19.0340    -8.3249   -16.3067 C             1 RES     
    1029 C           17.8060    -8.3249   -14.1797 C             1 RES     
    1030 C           16.5780    -8.3250   -12.0528 C             1 RES     
    1031 C           15.3500    -8.3250    -9.9258 C             1 RES     
    1032 C           14.1220    -8.3250    -7.7988 C             1 RES     
    1033 C           12.8940    -8.3250    -5.6719 C             1 RES     
    1034 C           11.6660    -8.3250    -3.5449 C             1 RES     
    1035 C           10.4380    -8.3250    -1.4180 C             1 RES     
    1036 C            9.2100    -8.3250     0.7090 C             1 RES     
    1037 C            7.9820    -8.3250     2.8359 C             1 RES     
    1038 C            6.7540    -8.3250     4.9629 C             1 RES     
    1039 C            5.5260    -8.3250     7.0899 C             1 RES     
    1040 C            4.2980    -8.3250     9.2168 C             1 RES     
    1041 C            3.0700    -8.3250    11.3438 C             1 RES     
    1042 C            1.8420    -8.3250    13.4707 C             1 RES     
    1043 C            0.6140    -8.3251    15.5977 C             1 RES     
    1044 C           -0.6140    -8.3251    17.7247 C             1 RES     
    1045 C          -16.5780    -8.3249   -18.4336 C             1 RES     
    1046 C          -17.8060    -8.3249   -16.3067 C             1 RES     
    1047 C          -19.0340    -8.3249   -14.1797 C             1 RES     
    1048 C           19.0340    -8.3250   -12.0528 C             1 RES     
    1049 C           17.8060    -8.3250    -9.9258 C             1 RES     
    1050 C           16.5780    -8.3250    -7.7988 C             1 RES     
    1051 C           15.3500    -8.3250    -5.6719 C             1 RES     
    1052 C           14.1220    -8.3250    -3.5449 C             1 RES     
    1053 C           12.8940    -8.3250    -1.4180 C             1 RES     
    1054 C           11.6660    -8.3250     0.7090 C             1 RES     
    1055 C           10.4380    -8.3250     2.8359 C             1 RES     
    1056 C            9.2100    -8.3250     4.9629 C             1 RES     
    1057 C            7.9820    -8.3250     7.0899 C             1 RES     
    1058 C            6.7540    -8.3250     9.2168 C             1 RES     
    1059 C            5.5260    -8.3250    11.3438 C             1 RES     
    1060 C            4.2980    -8.3250    13.4707 C             1 RES     
    1061 C            3.0700    -8.3251    15.5977 C             1 RES     
    1062 C            1.8420    -8.3251    17.7247 C             1 RES     
    1063 C          -14.1220    -8.3249   -18.4336 C             1 RES     
    1064 C          -15.3500    -8.3249   -16.3067 C             1 RES     
    1065 C          -16.5780    -8.3249   -14.1797 C             1 RES     
    1066 C          -17.8060    -8.3250   -12.0528 C             1 RES     
    1067 C          -19.0340    -8.3250    -9.9258 C             1 RES     
    1068 C           19.0340    -8.3250    -7.7988 C             1 RES     
    1069 C           17.8060    -8.3250    -5.6719 C             1 RES     
    1070 C           16.5780    -8.3250    -3.5449 C             1 RES     
    1071 C           15.3500    -8.3250    -1.4180 C             1 RES     
    1072 C           14.1220    -8.3250     0.7090 C             1 RES     
    1073 C           12.8940    -8.3250     2.8359 C             1 RES     
    1074 C           11.6660    -8.3250     4.9629 C             1 RES     
    1075 C           10.4380    -8.3250     7.0899 C             1 RES     
    1076 C            9.2100    -8.3250     9.2168 C             1 RES     
    1077 C            7.9820    -8.3250    11.3438 C             1 RES     
    1078 C            6.7540    -8.3250    13.4707 C             1 RES     
    1079 C            5.5260    -8.3251    15.5977 C             1 RES     
    1080 C            4.2980    -8.3251    17.7247 C             1 RES     
    1081 C          -11.6660    -8.3249   -18.4336 C             1 RES     
    1082 C          -12.8940    -8.3249   -16.3067 C             1 RES     
    1083 C          -14.1220    -8.3249   -14.1797 C             1 RES     
    1084 C          -15.3500    -8.3250   -12.0528 C             1 RES     
    1085 C          -16.5780    -8.3250    -9.9258 C             1 RES     
    1086 C          -17.8060    -8.3250    -7.7988 C             1 RES     
    1087 C          -19.0340    -8.3250    -5.6719 C             1 RES     
    1088 C           19.0340    -8.3250    -3.5449 C             1 RES     
    1089 C           17.8060    -8.3250    -1.4180 C             1 RES     
    1090 C           16.5780    -8.3250     0.7090 C             1 RES     
    1091 C           15.3500    -8.3250     2.8359 C             1 RES     
    1092 C           14.1220    -8.3250     4.9629 C             1 RES     
    1093 C           12.8940    -8.3250     7.0899 C             1 RES     
    1094 C           11.6660    -8.3250     9.2168 C             1 RES     
    1095 C           10.4380    -8.3250    11.3438 C             1 RES     
    1096 C            9.2100    -8.3250    13.4707 C             1 RES     
    1097 C            7.9820    -8.3251    15.5977 C             1 RES     
    1098 C            6.7540    -8.3251    17.7247 C             1 RES     
    1099 C           -9.2100    -8.3249   -18.4336 C             1 RES     
    1100 C          -10.4380    -8.3249   -16.3067 C             1 RES     
    1101 C          -11.6660    -8.3249   -14.1797 C             1 RES     
    1102 C          -12.8940    -8.3250   -12.0528 C             1 RES     
    1103 C          -14.1220    -8.3250    -9.9258 C             1 RES     
    1104 C          -15.3500    -8.3250    -7.7988 C             1 RES     
    1105 C          -16.5780    -8.3250    -5.6719 C             1 RES     
    1106 C          -17.8060    -8.3250    -3.5449 C             1 RES     
    1107 C          -19.0340    -8.3250    -1.4180 C             1 RES     
    1108 C           19.0340    -8.3250     0.7090 C             1 RES     
    1109 C           17.8060    -8.3250     2.8359 C             1 RES     
    1110 C           16.5780    -8.3250     4.9629 C             1 RES     
    1111 C           15.3500    -8.3250     7.0899 C             1 RES     
    1112 C           14.1220    -8.3250     9.2168 C             1 RES     
    1113 C           12.8940    -8.3250    11.3438 C             1 RES     
    1114 C           11.6660    -8.3250    13.4707 C             1 RES     
    1115 C           10.4380    -8.3251    15.5977 C             1 RES     
    1116 C            9.2100    -8.3251    17.7247 C             1 RES     
    1117 C           -6.7540    -8.3249   -18.4336 C             1 RES     
    1118 C           -7.9820    -8.3249   -16.3067 C             1 RES     
    1119 C           -9.2100    -8.3249   -14.1797 C             1 RES     
    1120 C          -10.4380    -8.3250   -12.0528 C             1 RES     
    1121 C          -11.6660    -8.3250    -9.9258 C             1 RES     
    1122 C          -12.8940    -8.3250    -7.7988 C             1 RES     
    1123 C          -14.1220    -8.3250    -5.6719 C             1 RES     
    1124 C          -15.3500    -8.3250    -3.5449 C             1 RES     
    1125 C          -16.5780    -8.3250    -1.4180 C             1 RES     
    1126 C          -17.8060    -8.3250     0.7090 C             1 RES     
    1127 C          -19.0340    -8.3250     2.8359 C             1 RES     
    1128 C           19.0340    -8.3250     4.9629 C             1 RES     
    1129 C           17.8060    -8.3250     7.0899 C             1 RES     
    1130 C           16.5780    -8.3250     9.2168 C             1 RES     
    1131 C           15.3500    -8.3250    11.3438 C             1 RES     
    1132 C           14.1220    -8.3250    13.4707 C             1 RES     
    1133 C           12.8940    -8.3251    15.5977 C             1 RES     
    1134 C           11.6660    -8.3251    17.7247 C             1 RES     
    1135 C           -4.2980    -8.3249   -18.4336 C             1 RES     
    1136 C           -5.5260    -8.3249   -16.3067 C             1 RES     
    1137 C           -6.7540    -8.3249   -14.1797 C             1 RES     
    1138 C           -7.9820    -8.3250   -12.0528 C             1 RES     
    1139 C           -9.2100    -8.3250    -9.9258 C             1 RES     
    1140 C          -10.4380    -8.3250    -7.7988 C             1 RES     
    1141 C          -11.6660    -8.3250    -5.6719 C             1 RES     
    1142 C          -12.8940    -8.3250    -3.5449 C             1 RES     
    1143 C          -14.1220    -8.3250    -1.4180 C             1 RES     
    1144 C          -15.3500    -8.3250     0.7090 C             1 RES     
    1145 C          -16.5780    -8.3250     2.8359 C             1 RES     
    1146 C          -17.8060    -8.3250     4.9629 C             1 RES     
    1147 C          -19.0340    -8.3250     7.0899 C             1 RES     
    1148 C           19.0340    -8.3250     9.2168 C             1 RES     
    1149 C           17.8060    -8.3250    11.3438 C             1 RES     
    1150 C           16.5780    -8.3250    13.4707 C             1 RES     
    1151 C           15.3500    -8.3251    15.5977 C             1 RES     
    1152 C           14.1220    -8.3251    17.7247 C             1 RES     
    1153 C           -1.8420    -8.3249   -18.4336 C             1 RES     
    1154 C           -3.0700    -8.3249   -16.3067 C             1 RES     
    1155 C           -4.2980    -8.3249   -14.1797 C             1 RES     
    1156 C           -5.5260    -8.3250   -12.0528 C             1 RES     
    1157 C           -6.7540    -8.3250    -9.9258 C             1 RES     
    1158 C           -7.9820    -8.3250    -7.7988 C             1 RES     
    1159 C           -9.2100    -8.3250    -5.6719 C             1 RES     
    1160 C          -10.4380    -8.3250    -3.5449 C             1 RES     
    1161 C          -11.6660    -8.3250    -1.4180 C             1 RES     
    1162 C          -12.8940    -8.3250     0.7090 C             1 RES     
    1163 C          -14.1220    -8.3250     2.8359 C             1 RES     
    1164 C          -15.3500    -8.3250     4.9629 C             1 RES     
    1165 C          -16.5780    -8.3250     7.0899 C             1 RES     
    1166 C          -17.8060    -8.3250     9.2168 C             1 RES     
    1167 C          -19.0340    -8.3250    11.3438 C             1 RES     
    1168 C           19.0340    -8.3250    13.4707 C             1 RES     
    1169 C           17.8060    -8.3251    15.5977 C             1 RES     
    1170 C           16.5780    -8.3251    17.7247 C             1 RES     
    1171 C            0.6140    -8.3249   -18.4336 C             1 RES     
    1172 C           -0.6140    -8.3249   -16.3067 C             1 RES     
    1173 C           -1.8420    -8.3249   -14.1797 C             1 RES     
    1174 C           -3.0700    -8.3250   -12.0528 C             1 RES     
    1175 C           -4.2980    -8.3250    -9.9258 C             1 RES     
    1176 C           -5.5260    -8.3250    -7.7988 C             1 RES     
    1177 C           -6.7540    -8.3250    -5.6719 C             1 RES     
    1178 C           -7.9820    -8.3250    -3.5449 C             1 RES     
    1179 C           -9.2100    -8.3250    -1.4180 C             1 RES     
    1180 C          -10.4380    -8.3250     0.7090 C             1 RES     
    1181 C          -11.6660    -8.3250     2.8359 C             1 RES     
    1182 C          -12.8940    -8.3250     4.9629 C             1 RES     
    1183 C          -14.1220    -8.3250     7.0899 C             1 RES     
    1184 C          -15.3500    -8.3250     9.2168 C             1 RES     
    1185 C          -16.5780    -8.3250    11.3438 C             1 RES     
    1186 C          -17.8060    -8.3250    13.4707 C             1 RES     
    1187 C          -19.0340    -8.3251    15.5977 C             1 RES     
    1188 C           19.0340    -8.3251    17.7247 C             1 RES     
    1189 C            3.0700    -8.3249   -18.4336 C             1 RES     
    1190 C            1.8420    -8.3249   -16.3067 C             1 RES     
    1191 C            0.6140    -8.3249   -14.1797 C             1 RES     
    1192 C           -0.6140    -8.3250   -12.0528 C             1 RES     
    1193 C           -1.8420    -8.3250    -9.9258 C             1 RES     
    1194 C           -3.0700    -8.3250    -7.7988 C             1 RES     
    1195 C           -4.2980    -8.3250    -5.6719 C             1 RES     
    1196 C           -5.5260    -8.3250    -3.5449 C             1 RES     
    1197 C           -6.7540    -8.3250    -1.4180 C             1 RES     
    1198 C           -7.9820    -8.3250     0.7090 C             1 RES     
    1199 C           -9.2100    -8.3250     2.8359 C             1 RES     
    1200 C          -10.4380    -8.3250     4.9629 C             1 RES     
    1201 C          -11.6660    -8.3250     7.0899 C             1 RES     
    1202 C          -12.8940    -8.3250     9.2168 C             1 RES     
    1203 C          -14.1220    -8.3250    11.3438 C             1 RES     
    1204 C          -15.3500    -8.3250    13.4707 C             1 RES     
    1205 C          -16.5780    -8.3251    15.5977 C             1 RES     
    1206 C          -17.8060    -8.3251    17.7247 C             1 RES     
    1207 C            5.5260    -8.3249   -18.4336 C             1 RES     
    1208 C            4.2980    -8.3249   -16.3067 C             1 RES     
    1209 C            3.0700    -8.3249   -14.1797 C             1 RES     
    1210 C            1.8420    -8.3250   -12.0528 C             1 RES     
    1211 C            0.6140    -8.3250    -9.9258 C             1 RES     
    1212 C           -0.6140    -8.3250    -7.7988 C             1 RES     
    1213 C           -1.8420    -8.3250    -5.6719 C             1 RES     
    1214 C           -3.0700    -8.3250    -3.5449 C             1 RES     
    1215 C           -4.2980    -8.3250    -1.4180 C             1 RES     
    1216 C           -5.5260    -8.3250     0.7090 C             1 RES     
    1217 C           -6.7540    -8.3250     2.8359 C             1 RES     
    1218 C           -7.9820    -8.3250     4.9629 C             1 RES     
    1219 C           -9.2100    -8.3250     7.0899 C             1 RES     
    1220 C          -10.4380    -8.3250     9.2168 C             1 RES     
    1221 C          -11.6660    -8.3250    11.3438 C             1 RES     
    1222 C          -12.8940    -8.3250    13.4707 C             1 RES     
    1223 C          -14.1220    -8.3251    15.5977 C             1 RES     
    1224 C          -15.3500    -8.3251    17.7247 C             1 RES     
    1225 C            7.9820    -8.3249   -18.4336 C             1 RES     
    1226 C            6.7540    -8.3249   -16.3067 C             1 RES     
    1227 C            5.5260    -8.3249   -14.1797 C             1 RES     
    1228 C            4.2980    -8.3250   -12.0528 C             1 RES     
    1229 C            3.0700    -8.3250    -9.9258 C             1 RES     
    1230 C            1.8420    -8.3250    -7.7988 C             1 RES     
    1231 C            0.6140    -8.3250    -5.6719 C             1 RES     
    1232 C           -0.6140    -8.3250    -3.5449 C             1 RES     
    1233 C           -1.8420    -8.3250    -1.4180 C             1 RES     
    1234 C           -3.0700    -8.3250     0.7090 C             1 RES     
    1235 C           -4.2980    -8.3250     2.8359 C             1 RES     
    1236 C           -5.5260    -8.3250     4.9629 C             1 RES     
    1237 C           -6.7540    -8.3250     7.0899 C             1 RES     
    1238 C           -7.9820    -8.3250     9.2168 C             1 RES     
    1239 C           -9.2100    -8.3250    11.3438 C             1 RES     
    1240 C          -10.4380    -8.3250    13.4707 C             1 RES     
    1241 C          -11.6660    -8.3251    15.5977 C             1 RES     
    1242 C          -12.8940    -8.3251    17.7247 C             1 RES     
    1243 C           10.4380    -8.3249   -18.4336 C             1 RES     
    1244 C            9.2100    -8.3249   -16.3067 C             1 RES     
    1245 C            7.9820    -8.3249   -14.1797 C             1 RES     
    1246 C            6.7540    -8.3250   -12.0528 C             1 RES     
    1247 C            5.5260    -8.3250    -9.9258 C             1 RES     
    1248 C            4.2980    -8.3250    -7.7988 C             1 RES     
    1249 C            3.0700    -8.3250    -5.6719 C             1 RES     
    1250 C            1.8420    -8.3250    -3.5449 C             1 RES     
    1251 C            0.6140    -8.3250    -1.4180 C             1 RES     
    1252 C           -0.6140    -8.3250     0.7090 C             1 RES     
    1253 C           -1.8420    -8.3250     2.8359 C             1 RES     
    1254 C           -3.0700    -8.3250     4.9629 C             1 RES     
    1255 C           -4.2980    -8.3250     7.0899 C             1 RES     
    1256 C           -5.5260    -8.3250     9.2168 C             1 RES     
    1257 C           -6.7540    -8.3250    11.3438 C             1 RES     
    1258 C           -7.9820    -8.3250    13.4707 C             1 RES     
    1259 C           -9.2100    -8.3251    15.5977 C             1 RES     
    1260 C          -10.4380    -8.3251    17.7247 C             1 RES     
    1261 C           12.8940    -8.3249   -18.4336 C             1 RES     
    1262 C           11.6660    -8.3249   -16.3067 C             1 RES     
    1263 C           10.4380    -8.3249   -14.1797 C             1 RES     
    1264 C            9.2100    -8.3250   -12.0528 C             1 RES     
    1265 C            7.9820    -8.3250    -9.9258 C             1 RES     
    1266 C            6.7540    -8.3250    -7.7988 C             1 RES     
    1267 C            5.5260    -8.3250    -5.6719 C             1 RES     
    1268 C            4.2980    -8.3250    -3.5449 C             1 RES     
    1269 C            3.0700    -8.3250    -1.4180 C             1 RES     
    1270 C            1.8420    -8.3250     0.7090 C             1 RES     
    1271 C            0.6140    -8.3250     2.8359 C             1 RES     
    1272 C           -0.6140    -8.3250     4.9629 C             1 RES     
    1273 C           -1.8420    -8.3250     7.0899 C             1 RES     
    1274 C           -3.0700    -8.3250     9.2168 C             1 RES     
    1275 C           -4.2980    -8.3250    11.3438 C             1 RES     
    1276 C           -5.5260    -8.3250    13.4707 C             1 RES     
    1277 C           -6.7540    -8.3251    15.5977 C             1 RES     
    1278 C           -7.9820    -8.3251    17.7247 C             1 RES     
    1279 C           15.3500    -8.3249   -18.4336 C             1 RES     
    1280 C           14.1220    -8.3249   -16.3067 C             1 RES     
    1281 C           12.8940    -8.3249   -14.1797 C             1 RES     
    1282 C           11.6660    -8.3250   -12.0528 C             1 RES     
    1283 C           10.4380    -8.3250    -9.9258 C             1 RES     
    1284 C            9.2100    -8.3250    -7.7988 C             1 RES     
    1285 C            7.9820    -8.3250    -5.6719 C             1 RES     
    1286 C            6.7540    -8.3250    -3.5449 C             1 RES     
    1287 C            5.5260    -8.3250    -1.4180 C             1 RES     
    1288 C            4.2980    -8.3250     0.7090 C             1 RES     
    1289 C            3.0700    -8.3250     2.8359 C             1 RES     
    1290 C            1.8420    -8.3250     4.9629 C             1 RES     
    1291 C            0.6140    -8.3250     7.0899 C             1 RES     
    1292 C           -0.6140    -8.3250     9.2168 C             1 RES     
    1293 C           -1.8420    -8.3250    11.3438 C             1 RES     
    1294 C           -3.0700    -8.3250    13.4707 C             1 RES     
    1295 C           -4.2980    -8.3251    15.5977 C             1 RES     
    1296 C           -5.5260    -8.3251    17.7247 C             1 RES     
    1297 C           17.8060    -8.3249   -18.4336 C             1 RES     
    1298 C           16.5780    -8.3249   -16.3067 C             1 RES     
    1299 C           15.3500    -8.3249   -14.1797 C             1 RES     
    1300 C           14.1220    -8.3250   -12.0528 C             1 RES     
    1301 C           12.8940    -8.3250    -9.9258 C             1 RES     
    1302 C           11.6660    -8.3250    -7.7988 C             1 RES     
    1303 C           10.4380    -8.3250    -5.6719 C             1 RES     
    1304 C            9.2100    -8.3250    -3.5449 C             1 RES     
    1305 C            7.9820    -8.3250    -1.4180 C             1 RES     
    1306 C            6.7540    -8.3250     0.7090 C             1 RES     
    1307 C            5.5260    -8.3250     2.8359 C             1 RES     
    1308 C            4.2980    -8.3250     4.9629 C             1 RES     
    1309 C            3.0700    -8.3250     7.0899 C             1 RES     
    1310 C            1.8420    -8.3250     9.2168 C             1 RES     
    1311 C            0.6140    -8.3250    11.3438 C             1 RES     
    1312 C           -0.6140    -8.3250    13.4707 C             1 RES     
    1313 C           -1.8420    -8.3251    15.5977 C             1 RES     
    1314 C           -3.0700    -8.3251    17.7247 C             1 RES     
    1315 C          -17.8060    -8.3249   -17.7247 C             1 RES     
    1316 C          -19.0340    -8.3249   -15.5977 C             1 RES     
    1317 C           19.0340    -8.3250   -13.4707 C             1 RES     
    1318 C           17.8060    -8.3250   -11.3438 C             1 RES     
    1319 C           16.5780    -8.3250    -9.2168 C             1 RES     
    1320 C           15.3500    -8.3250    -7.0899 C             1 RES     
    1321 C           14.1220    -8.3250    -4.9629 C             1 RES     
    1322 C           12.8940    -8.3250    -2.8359 C             1 RES     
    1323 C           11.6660    -8.3250    -0.7090 C             1 RES     
    1324 C           10.4380    -8.3250     1.4180 C             1 RES     
    1325 C            9.2100    -8.3250     3.5449 C             1 RES     
    1326 C            7.9820    -8.3250     5.6719 C             1 RES     
    1327 C            6.7540    -8.3250     7.7988 C             1 RES     
    1328 C            5.5260    -8.3250     9.9258 C             1 RES     
    1329 C            4.2980    -8.3250    12.0528 C             1 RES     
    1330 C            3.0700    -8.3251    14.1797 C             1 RES     
    1331 C            1.8420    -8.3251    16.3067 C             1 RES     
    1332 C            0.6140    -8.3251    18.4336 C             1 RES     
    1333 C          -15.3500    -8.3249   -17.7247 C             1 RES     
    1334 C          -16.5780    -8.3249   -15.5977 C             1 RES     
    1335 C          -17.8060    -8.3250   -13.4707 C             1 RES     
    1336 C          -19.0340    -8.3250   -11.3438 C             1 RES     
    1337 C           19.0340    -8.3250    -9.2168 C             1 RES     
    1338 C           17.8060    -8.3250    -7.0899 C             1 RES     
    1339 C           16.5780    -8.3250    -4.9629 C             1 RES     
    1340 C           15.3500    -8.3250    -2.8359 C             1 RES     
    1341 C           14.1220    -8.3250    -0.7090 C             1 RES     
    1342 C           12.8940    -8.3250     1.4180 C             1 RES     
    1343 C           11.6660    -8.3250     3.5449 C             1 RES     
    1344 C           10.4380    -8.3250     5.6719 C             1 RES     
    1345 C            9.2100    -8.3250     7.7988 C             1 RES     
    1346 C            7.9820    -8.3250     9.9258 C             1 RES     
    1347 C            6.7540    -8.3250    12.0528 C             1 RES     
    1348 C            5.5260    -8.3251    14.1797 C             1 RES     
    1349 C            4.2980    -8.3251    16.3067 C             1 RES     
    1350 C            3.0700    -8.3251    18.4336 C             1 RES     
    1351 C          -12.8940    -8.3249   -17.7247 C             1 RES     
    1352 C          -14.1220    -8.3249   -15.5977 C             1 RES     
    1353 C          -15.3500    -8.3250   -13.4707 C             1 RES     
    1354 C          -16.5780    -8.3250   -11.3438 C             1 RES     
    1355 C          -17.8060    -8.3250    -9.2168 C             1 RES     
    1356 C          -19.0340    -8.3250    -7.0899 C             1 RES     
    1357 C           19.0340    -8.3250    -4.9629 C             1 RES     
    1358 C           17.8060    -8.3250    -2.8359 C             1 RES     
    1359 C           16.5780    -8.3250    -0.7090 C             1 RES     
    1360 C           15.3500    -8.3250     1.4180 C             1 RES     
    1361 C           14.1220    -8.3250     3.5449 C             1 RES     
    1362 C           12.8940    -8.3250     5.6719 C             1 RES     
    1363 C           11.6660    -8.3250     7.7988 C             1 RES     
    1364 C           10.4380    -8.3250     9.9258 C             1 RES     
    1365 C            9.2100    -8.3250    12.0528 C             1 RES     
    1366 C            7.9820    -8.3251    14.1797 C             1 RES     
    1367 C            6.7540    -8.3251    16.3067 C             1 RES     
    1368 C            5.5260    -8.3251    18.4336 C             1 RES     
    1369 C          -10.4380    -8.3249   -17.7247 C             1 RES     
    1370 C          -11.6660    -8.3249   -15.5977 C             1 RES     
    1371 C          -12.8940    -8.3250   -13.4707 C             1 RES     
    1372 C          -14.1220    -8.3250   -11.3438 C             1 RES     
    1373 C          -15.3500    -8.3250    -9.2168 C             1 RES     
    1374 C          -16.5780    -8.3250    -7.0899 C             1 RES     
    1375 C          -17.8060    -8.3250    -4.9629 C             1 RES     
    1376 C          -19.0340    -8.3250    -2.8359 C             1 RES     
    1377 C           19.0340    -8.3250    -0.7090 C             1 RES     
    1378 C           17.8060    -8.3250     1.4180 C             1 RES     
    1379 C           16.5780    -8.3250     3.5449 C             1 RES     
    1380 C           15.3500    -8.3250     5.6719 C             1 RES     
    1381 C           14.1220    -8.3250     7.7988 C             1 RES     
    1382 C           12.8940    -8.3250     9.9258 C             1 RES     
    1383 C           11.6660    -8.3250    12.0528 C             1 RES     
    1384 C           10.4380    -8.3251    14.1797 C             1 RES     
    1385 C            9.2100    -8.3251    16.3067 C             1 RES     
    1386 C            7.9820    -8.3251    18.4336 C             1 RES     
    1387 C           -7.9820    -8.3249   -17.7247 C             1 RES     
    1388 C           -9.2100    -8.3249   -15.5977 C             1 RES     
    1389 C          -10.4380    -8.3250   -13.4707 C             1 RES     
    1390 C          -11.6660    -8.3250   -11.3438 C             1 RES     
    1391 C          -12.8940    -8.3250    -9.2168 C             1 RES     
    1392 C          -14.1220    -8.3250    -7.0899 C             1 RES     
    1393 C          -15.3500    -8.3250    -4.9629 C             1 RES     
    1394 C          -16.5780    -8.3250    -2.8359 C             1 RES     
    1395 C          -17.8060    -8.3250    -0.7090 C             1 RES     
    1396 C          -19.0340    -8.3250     1.4180 C             1 RES     
    1397 C           19.0340    -8.3250     3.5449 C             1 RES     
    1398 C           17.8060    -8.3250     5.6719 C             1 RES     
    1399 C           16.5780    -8.3250     7.7988 C             1 RES     
    1400 C           15.3500    -8.3250     9.9258 C             1 RES     
    1401 C           14.1220    -8.3250    12.0528 C             1 RES     
    1402 C           12.8940    -8.3251    14.1797 C             1 RES     
    1403 C           11.6660    -8.3251    16.3067 C             1 RES     
    1404 C           10.4380    -8.3251    18.4336 C             1 RES     
    1405 C           -5.5260    -8.3249   -17.7247 C             1 RES     
    1406 C           -6.7540    -8.3249   -15.5977 C             1 RES     
    1407 C           -7.9820    -8.3250   -13.4707 C             1 RES     
    1408 C           -9.2100    -8.3250   -11.3438 C             1 RES     
    1409 C          -10.4380    -8.3250    -9.2168 C             1 RES     
    1410 C          -11.6660    -8.3250    -7.0899 C             1 RES     
    1411 C          -12.8940    -8.3250    -4.9629 C             1 RES     
    1412 C          -14.1220    -8.3250    -2.8359 C             1 RES     
    1413 C          -15.3500    -8.3250    -0.7090 C             1 RES     
    1414 C          -16.5780    -8.3250     1.4180 C             1 RES     
    1415 C          -17.8060    -8.3250     3.5449 C             1 RES     
    1416 C          -19.0340    -8.3250     5.6719 C             1 RES     
    1417 C           19.0340    -8.3250     7.7988 C             1 RES     
    1418 C           17.8060    -8.3250     9.9258 C             1 RES     
    1419 C           16.5780    -8.3250    12.0528 C             1 RES     
    1420 C           15.3500    -8.3251    14.1797 C             1 RES     
    1421 C           14.1220    -8.3251    16.3067 C             1 RES     
    1422 C           12.8940    -8.3251    18.4336 C             1 RES     
    1423 C           -3.0700    -8.3249   -17.7247 C             1 RES     
    1424 C           -4.2980    -8.3249   -15.5977 C             1 RES     
    1425 C           -5.5260    -8.3250   -13.4707 C             1 RES     
    1426 C           -6.7540    -8.3250   -11.3438 C             1 RES     
    1427 C           -7.9820    -8.3250    -9.2168 C             1 RES     
    1428 C           -9.2100    -8.3250    -7.0899 C             1 RES     
    1429 C          -10.4380    -8.3250    -4.9629 C             1 RES     
    1430 C          -11.6660    -8.3250    -2.8359 C             1 RES     
    1431 C          -12.8940    -8.3250    -0.7090 C             1 RES     
    1432 C          -14.1220    -8.3250     1.4180 C             1 RES     
    1433 C          -15.3500    -8.3250     3.5449 C             1 RES     
    1434 C          -16.5780    -8.3250     5.6719 C             1 RES     
    1435 C          -17.8060    -8.3250     7.7988 C             1 RES     
    1436 C          -19.0340    -8.3250     9.9258 C             1 RES     
    1437 C           19.0340    -8.3250    12.0528 C             1 RES     
    1438 C           17.8060    -8.3251    14.1797 C             1 RES     
    1439 C           16.5780    -8.3251    16.3067 C             1 RES     
    1440 C           15.3500    -8.3251    18.4336 C             1 RES     
    1441 C           -0.6140    -8.3249   -17.7247 C             1 RES     
    1442 C           -1.8420    -8.3249   -15.5977 C             1 RES     
    1443 C           -3.0700    -8.3250   -13.4707 C             1 RES     
    1444 C           -4.2980    -8.3250   -11.3438 C             1 RES     
    1445 C           -5.5260    -8.3250    -9.2168 C             1 RES     
    1446 C           -6.7540    -8.3250    -7.0899 C             1 RES     
    1447 C           -7.9820    -8.3250    -4.9629 C             1 RES     
    1448 C           -9.2100    -8.3250    -2.8359 C             1 RES     
    1449 C          -10.4380    -8.3250    -0.7090 C             1 RES     
    1450 C          -11.6660    -8.3250     1.4180 C             1 RES     
    1451 C          -12.8940    -8.3250     3.5449 C             1 RES     
    1452 C          -14.1220    -8.3250     5.6719 C             1 RES     
    1453 C          -15.3500    -8.3250     7.7988 C             1 RES     
    1454 C          -16.5780    -8.3250     9.9258 C             1 RES     
    1455 C          -17.8060    -8.3250    12.0528 C             1 RES     
    1456 C          -19.0340    -8.3251    14.1797 C             1 RES     
    1457 C           19.0340    -8.3251    16.3067 C             1 RES     
    1458 C           17.8060    -8.3251    18.4336 C             1 RES     
    1459 C            1.8420    -8.3249   -17.7247 C             1 RES     
    1460 C            0.6140    -8.3249   -15.5977 C             1 RES     
    1461 C           -0.6140    -8.3250   -13.4707 C             1 RES     
    1462 C           -1.8420    -8.3250   -11.3438 C             1 RES     
    1463 C           -3.0700    -8.3250    -9.2168 C             1 RES     
    1464 C           -4.2980    -8.3250    -7.0899 C             1 RES     
    1465 C           -5.5260    -8.3250    -4.9629 C             1 RES     
    1466 C           -6.7540    -8.3250    -2.8359 C             1 RES     
    1467 C           -7.9820    -8.3250    -0.7090 C             1 RES     
    1468 C           -9.2100    -8.3250     1.4180 C             1 RES     
    1469 C          -10.4380    -8.3250     3.5449 C             1 RES     
    1470 C          -11.6660    -8.3250     5.6719 C             1 RES     
    1471 C          -12.8940    -8.3250     7.7988 C             1 RES     
    1472 C          -14.1220    -8.3250     9.9258 C             1 RES     
    1473 C          -15.3500    -8.3250    12.0528 C             1 RES     
    1474 C          -16.5780    -8.3251    14.1797 C             1 RES     
    1475 C          -17.8060    -8.3251    16.3067 C             1 RES     
    1476 C          -19.0340    -8.3251    18.4336 C             1 RES     
    1477 C            4.2980    -8.3249   -17.7247 C             1 RES     
    1478 C            3.0700    -8.3249   -15.5977 C             1 RES     
    1479 C            1.8420    -8.3250   -13.4707 C             1 RES     
    1480 C            0.6140    -8.3250   -11.3438 C             1 RES     
    1481 C           -0.6140    -8.3250    -9.2168 C             1 RES     
    1482 C           -1.8420    -8.3250    -7.0899 C             1 RES     
    1483 C           -3.0700    -8.3250    -4.9629 C             1 RES     
    1484 C           -4.2980    -8.3250    -2.8359 C             1 RES     
    1485 C           -5.5260    -8.3250    -0.7090 C             1 RES     
    1486 C           -6.7540    -8.3250     1.4180 C             1 RES     
    1487 C           -7.9820    -8.3250     3.5449 C             1 RES     
    1488 C           -9.2100    -8.3250     5.6719 C             1 RES     
    1489 C          -10.4380    -8.3250     7.7988 C             1 RES     
    1490 C          -11.6660    -8.3250     9.9258 C             1 RES     
    1491 C          -12.8940    -8.3250    12.0528 C             1 RES     
    1492 C          -14.1220    -8.3251    14.1797 C             1 RES     
    1493 C          -15.3500    -8.3251    16.3067 C             1 RES     
    1494 C          -16.5780    -8.3251    18.4336 C             1 RES     
    1495 C            6.7540    -8.3249   -17.7247 C             1 RES     
    1496 C            5.5260    -8.3249   -15.5977 C             1 RES     
    1497 C            4.2980    -8.3250   -13.4707 C             1 RES     
    1498 C            3.0700    -8.3250   -11.3438 C             1 RES     
    1499 C            1.8420    -8.3250    -9.2168 C             1 RES     
    1500 C            0.6140    -8.3250    -7.0899 C             1 RES     
    1501 C           -0.6140    -8.3250    -4.9629 C             1 RES     
    1502 C           -1.8420    -8.3250    -2.8359 C             1 RES     
    1503 C           -3.0700    -8.3250    -0.7090 C             1 RES     
    1504 C           -4.2980    -8.3250     1.4180 C             1 RES     
    1505 C           -5.5260    -8.3250     3.5449 C             1 RES     
    1506 C           -6.7540    -8.3250     5.6719 C             1 RES     
    1507 C           -7.9820    -8.3250     7.7988 C             1 RES     
    1508 C           -9.2100    -8.3250     9.9258 C             1 RES     
    1509 C          -10.4380    -8.3250    12.0528 C             1 RES     
    1510 C          -11.6660    -8.3251    14.1797 C             1 RES     
    1511 C          -12.8940    -8.3251    16.3067 C             1 RES     
    1512 C          -14.1220    -8.3251    18.4336 C             1 RES     
    1513 C            9.2100    -8.3249   -17.7247 C             1 RES     
    1514 C            7.9820    -8.3249   -15.5977 C             1 RES     
    1515 C            6.7540    -8.3250   -13.4707 C             1 RES     
    1516 C            5.5260    -8.3250   -11.3438 C             1 RES     
    1517 C            4.2980    -8.3250    -9.2168 C             1 RES     
    1518 C            3.0700    -8.3250    -7.0899 C             1 RES     
    1519 C            1.8420    -8.3250    -4.9629 C             1 RES     
    1520 C            0.6140    -8.3250    -2.8359 C             1 RES     
    1521 C           -0.6140    -8.3250    -0.7090 C             1 RES     
    1522 C           -1.8420    -8.3250     1.4180 C             1 RES     
    1523 C           -3.0700    -8.3250     3.5449 C             1 RES     
    1524 C           -4.2980    -8.3250     5.6719 C             1 RES     
    1525 C           -5.5260    -8.3250     7.7988 C             1 RES     
    1526 C           -6.7540    -8.3250     9.9258 C             1 RES     
    1527 C           -7.9820    -8.3250    12.0528 C             1 RES     
    1528 C           -9.2100    -8.3251    14.1797 C             1 RES     
    1529 C          -10.4380    -8.3251    16.3067 C             1 RES     
    1530 C          -11.6660    -8.3251    18.4336 C             1 RES     
    1531 C           11.6660    -8.3249   -17.7247 C             1 RES     
    1532 C           10.4380    -8.3249   -15.5977 C             1 RES     
    1533 C            9.2100    -8.3250   -13.4707 C             1 RES     
    1534 C            7.9820    -8.3250   -11.3438 C             1 RES     
    1535 C            6.7540    -8.3250    -9.2168 C             1 RES     
    1536 C            5.5260    -8.3250    -7.0899 C             1 RES     
    1537 C            4.2980    -8.3250    -4.9629 C             1 RES     
    1538 C            3.0700    -8.3250    -2.8359 C             1 RES     
    1539 C            1.8420    -8.3250    -0.7090 C             1 RES     
    1540 C            0.6140    -8.3250     1.4180 C             1 RES     
    1541 C           -0.6140    -8.3250     3.5449 C             1 RES     
    1542 C           -1.8420    -8.3250     5.6719 C             1 RES     
    1543 C           -3.0700    -8.3250     7.7988 C             1 RES     
    1544 C           -4.2980    -8.3250     9.9258 C             1 RES     
    1545 C           -5.5260    -8.3250    12.0528 C             1 RES     
    1546 C           -6.7540    -8.3251    14.1797 C             1 RES     
    1547 C           -7.9820    -8.3251    16.3067 C             1 RES     
    1548 C           -9.2100    -8.3251    18.4336 C             1 RES     
    1549 C           14.1220    -8.3249   -17.7247 C             1 RES     
    1550 C           12.8940    -8.3249   -15.5977 C             1 RES     
    1551 C           11.6660    -8.3250   -13.4707 C             1 RES     
    1552 C           10.4380    -8.3250   -11.3438 C             1 RES     
    1553 C            9.2100    -8.3250    -9.2168 C             1 RES     
    1554 C            7.9820    -8.3250    -7.0899 C             1 RES     
    1555 C            6.7540    -8.3250    -4.9629 C             1 RES     
    1556 C            5.5260    -8.3250    -2.8359 C             1 RES     
    1557 C            4.2980    -8.3250    -0.7090 C             1 RES     
    1558 C            3.0700    -8.3250     1.4180 C             1 RES     
    1559 C            1.8420    -8.3250     3.5449 C             1 RES     
    1560 C            0.6140    -8.3250     5.6719 C             1 RES     
    1561 C           -0.6140    -8.3250     7.7988 C             1 RES     
    1562 C           -1.8420    -8.3250     9.9258 C             1 RES     
    1563 C           -3.0700    -8.3250    12.0528 C             1 RES     
    1564 C           -4.2980    -8.3251    14.1797 C             1 RES     
    1565 C           -5.5260    -8.3251    16.3067 C             1 RES     
    1566 C           -6.7540    -8.3251    18.4336 C             1 RES     
    1567 C           16.5780    -8.3249   -17.7247 C             1 RES     
    1568 C           15.3500    -8.3249   -15.5977 C             1 RES     
    1569 C           14.1220    -8.3250   -13.4707 C             1 RES     
    1570 C           12.8940    -8.3250   -11.3438 C             1 RES     
    1571 C           11.6660    -8.3250    -9.2168 C             1 RES     
    1572 C           10.4380    -8.3250    -7.0899 C             1 RES     
    1573 C            9.2100    -8.3250    -4.9629 C             1 RES     
    1574 C            7.9820    -8.3250    -2.8359 C             1 RES     
    1575 C            6.7540    -8.3250    -0.7090 C             1 RES     
    1576 C            5.5260    -8.3250     1.4180 C             1 RES     
    1577 C            4.2980    -8.3250     3.5449 C             1 RES     
    1578 C            3.0700    -8.3250     5.6719 C             1 RES     
    1579 C            1.8420    -8.3250     7.7988 C             1 RES     
    1580 C            0.6140    -8.3250     9.9258 C             1 RES     
    1581 C           -0.6140    -8.3250    12.0528 C             1 RES     
    1582 C           -1.8420    -8.3251    14.1797 C             1 RES     
    1583 C           -3.0700    -8.3251    16.3067 C             1 RES     
    1584 C           -4.2980    -8.3251    18.4336 C             1 RES     
    1585 C           19.0340    -8.3249   -17.7247 C             1 RES     
    1586 C           17.8060    -8.3249   -15.5977 C             1 RES     
    1587 C           16.5780    -8.3250   -13.4707 C             1 RES     
    1588 C           15.3500    -8.3250   -11.3438 C             1 RES     
    1589 C           14.1220    -8.3250    -9.2168 C             1 RES     
    1590 C           12.8940    -8.3250    -7.0899 C             1 RES     
    1591 C           11.6660    -8.3250    -4.9629 C             1 RES     
    1592 C           10.4380    -8.3250    -2.8359 C             1 RES     
    1593 C            9.2100    -8.3250    -0.7090 C             1 RES     
    1594 C            7.9820    -8.3250     1.4180 C             1 RES     
    1595 C            6.7540    -8.3250     3.5449 C             1 RES     
    1596 C            5.5260    -8.3250     5.6719 C             1 RES     
    1597 C            4.2980    -8.3250     7.7988 C             1 RES     
    1598 C            3.0700    -8.3250     9.9258 C             1 RES     
    1599 C            1.8420    -8.3250    12.0528 C             1 RES     
    1600 C            0.6140    -8.3251    14.1797 C             1 RES     
    1601 C           -0.6140    -8.3251    16.3067 C             1 RES     
    1602 C           -1.8420    -8.3251    18.4336 C             1 RES     
@<TRIPOS>BOND
       1        1        2 1
       2        1        3 1
       3        4        5 1
       4        4        6 1
       5        7        8 1
       6        7        9 1
       7       10       11 1
       8       10       12 1
       9       13       14 1
      10       13       15 1
      11       16       17 1
      12       16       18 1
      13       19       20 1
      14       19       21 1
      15       22       23 1
      16       22       24 1
      17       25       26 1
      18       25       27 1
      19       28       29 1
      20       28       30 1
      21       31       32 1
      22       31       33 1
      23       34       35 1
      24       34       36 1
      25       37       38 1
      26       37       39 1
      27       40       41 1
      28       40       42 1
      29       43       44 1
      30       43       45 1
      31       46       47 1
      32       46       48 1
      33       49       50 1
      34       49       51 1
      35       52       53 1
      36       52       54 1
      37       55       56 1
      38       55       57 1
      39       58       59 1
      40       58       60 1
      41       61       62 1
      42       61       63 1
      43       64       65 1
      44       64       66 1
      45       67       68 1
      46       67       69 1
      47       70       71 1
      48       70       72 1
      49       73       74 1
      50       73       75 1
      51       76       77 1
      52       76       78 1
      53       79       80 1
      54       79       81 1
      55       82       83 1
      56       82       84 1
      57       85       86 1
      58       85       87 1
      59       88       89 1
      60       88       90 1
      61       91       92 1
      62       91       93 1
      63       94       95 1
      64       94       96 1
      65       97       98 1
      66       97       99 1
      67      100      101 1
      68      100      102 1
      69      103      104 1
      70      103      105 1
      71      106      107 1
      72      106      108 1
      73      109      110 1
      74      109      111 1
      75      112      113 1
      76      112      114 1
      77      115      116 1
      78      115      117 1
      79      118      119 1
      80      118      120 1
      81      121      122 1
      82      121      123 1
      83      124      125 1
      84      124      126 1
      85      127      128 1
      86      127      129 1
      87      130      131 1
      88      130      132 1
      89      133      134 1
      90      133      135 1
      91      136      137 1
      92      136      138 1
      93      139      140 1
      94      139      141 1
      95      142      143 1
      96      142      144 1
      97      145      146 1
      98      145      147 1
      99      148      149 1
     100      148      150 1
     101      151      152 1
     102      151      153 1
     103      154      155 1
     104      154      156 1
     105      157      158 1
     106      157      159 1
     107      160      161 1
     108      160      162 1
     109      163      164 1
     110      163      165 1
     111      166      167 1
     112      166      168 1
     113      169      170 1
     114      169      171 1
     115      172      173 1
     116      172      174 1
     117      175      176 1
     118      175      177 1
     119      178      179 1
     120      178      180 1
     121      181      182 1
     122      181      183 1
     123      184      185 1
     124      184      186 1
     125      187      188 1
     126      187      189 1
     127      190      191 1
     128      190      192 1
     129      193      194 1
     130      193      195 1
     131      196      197 1
     132      196      198 1
     133      199      200 1
     134      199      201 1
     135      202      203 1
     136      202      204 1
     137      205      206 1
     138      205      207 1
     139      208      209 1
     140      208      210 1
     141      211      212 1
     142      211      213 1
     143      214      215 1
     144      214      216 1
     145      217      218 1
     146      217      219 1
     147      220      221 1
     148      220      222 1
     149      223      224 1
     150      223      225 1
     151      226      227 1
     152      226      228 1
     153      229      230 1
     154      229      231 1
     155      232      233 1
     156      232      234 1
     157      235      236 1
     158      235      237 1
     159      238      239 1
     160      238      240 1
     161      241      242 1
     162      241      243 1
     163      244      245 1
     164      244      246 1
     165      247      248 1
     166      247      249 1
     167      250      251 1
     168      250      252 1
     169      253      254 1
     170      253      255 1
     171      256      257 1
     172      256      258 1
     173      259      260 1
     174      259      261 1
     175      262      263 1
     176      262      264 1
     177      265      266 1
     178      265      267 1
     179      268      269 1
     180      268      270 1
     181      271      272 1
     182      271      273 1
     183      274      275 1
     184      274      276 1
     185      277      278 1
     186      277      279 1
     187      280      281 1
     188      280      282 1
     189      283      284 1
     190      283      285 1
     191      286      287 1
     192      286      288 1
     193      289      290 1
     194      289      291 1
     195      292      293 1
     196      292      294 1
     197      295      296 1
     198      295      297 1
     199      298      299 1
     200      298      300 1
     201      301      302 1
     202      301      303 1
     203      304      305 1
     204      304      306 1
     205      307      308 1
     206      307      309 1
     207      310      311 1
     208      310      312 1
     209      313      314 1
     210      313      315 1
     211      316      317 1
     212      316      318 1
     213      319      320 1
     214      319      321 1
     215      322      323 1
     216      322      324 1
     217      325      326 1
     218      325      327 1
     219      328      329 1
     220      328      330 1
     221      331      332 1
     222      331      333 1
     223      334      335 1
     224      334      336 1
     225      337      338 1
     226      337      339 1
     227      340      341 1
     228      340      342 1
     229      343      344 1
     230      343      345 1
     231      346      347 1
     232      346      348 1
     233      349      350 1
     234      349      351 1
     235      352      353 1
     236      352      354 1
     237      355      356 1
     238      355      357 1
     239      358      359 1
     240      358      360 1
     241      361      362 1
     242      361      363 1
     243      364      365 1
     244      364      366 1
     245      367      368 1
     246      367      369 1
     247      370      371 1
     248      370      372 1
     249      373      374 1
     250      373      375 1
     251      376      377 1
     252      376      378 1
     253      379      380 1
     254      379      381 1
     255      382      383 1
     256      382      384 1
     257      385      386 1
     258      385      387 1
     259      388      389 1
     260      388      390 1
     261      391      392 1
     262      391      393 1
     263      394      395 1
     264      394      396 1
     265      397      398 1
     266      397      399 1
     267      400      401 1
     268      400      402 1
     269      403      404 1
     270      403      405 1
     271      406      407 1
     272      406      408 1
     273      409      410 1
     274      409      411 1
     275      412      413 1
     276      412      414 1
     277      415      416 1
     278      415      417 1
     279      418      419 1
     280      418      420 1
     281      421      422 1
     282      421      423 1
     283      424      425 1
     284      424      426 1
     285      427      428 1
     286      427      429 1
     287      430      431 1
     288      430      432 1
     289      433      434 1
     290      433      435 1
     291      436      437 1
     292      436      438 1
     293      439      440 1
     294      439      441 1
     295      442      443 1
     296      442      444 1
     297      445      446 1
     298      445      447 1
     299      448      449 1
     300      448      450 1
@<TRIPOS>SUBSTRUCTURE
       1 RES             1 RESIDUE    0 **** ROOT      0
